
 PRINT VOLT NODAL SOLUTION PER NODE

 *** ANSYS - ENGINEERING ANALYSIS SYSTEM  RELEASE Release 16.1     16.1     ***
 ANSYS Academic Teaching Advanced                  
 00203145  VERSION=LINUX x64     16:01:31  JUN 12, 2018 CP=     43.159

                                                                               


 
  ***** POST1 NODAL DEGREE OF FREEDOM LISTING *****                            
 
  LOAD STEP=     1  SUBSTEP=     1                                             
   TIME=    1.0000      LOAD CASE=   0                                         
 
    NODE      VOLT  
       1   961.96    
       2   0.0000    
       3   799.46    
       4   658.02    
       5   483.21    
       6   335.43    
       7   152.10    
       8   0.0000    
       9   0.0000    
      10   0.0000    
      11   0.0000    
      12   0.0000    
      13   0.0000    
      14   0.0000    
      15   0.0000    
      16   0.0000    
      17   0.0000    
      18   0.0000    
      19   0.0000    
      20   0.0000    
      21   0.0000    
      22   0.0000    
      23   0.0000    
      24   0.0000    
      25   0.0000    
      26   0.0000    
      27   0.0000    
      28   0.0000    
      29   0.0000    
      30   0.0000    
      31   0.0000    
      32   0.0000    
      33   0.0000    
      34   0.0000    
      35   0.0000    
      36   0.0000    
      37   0.0000    
      38   1145.2    
      39   43.475    

 *** ANSYS - ENGINEERING ANALYSIS SYSTEM  RELEASE Release 16.1     16.1     ***
 ANSYS Academic Teaching Advanced                  
 00203145  VERSION=LINUX x64     16:01:31  JUN 12, 2018 CP=     43.160

                                                                               


 
  ***** POST1 NODAL DEGREE OF FREEDOM LISTING *****                            
 
  LOAD STEP=     1  SUBSTEP=     1                                             
   TIME=    1.0000      LOAD CASE=   0                                         
 
    NODE      VOLT  
      40   75.919    
      41   104.56    
      42   1124.4    
      43   1109.2    
      44   1096.8    
      45   1086.0    
      46   1067.8    
      47   1052.9    
      48   1029.7    
      49   1011.4    
      50   991.64    
      51   989.40    
      52   973.51    
      53   969.67    
      54   969.57    
      55   963.89    
      56   964.69    
      57   973.72    
      58   966.34    
      59   961.49    
      60   963.28    
      61   973.45    
      62   965.04    
      63   961.89    
      64   963.74    
      65   973.55    
      66   963.89    
      67   961.88    
      68   964.81    
      69   973.48    
      70   963.41    
      71   211.88    
      72   693.47    
      73   444.58    
      74   510.78    
      75   810.56    
      76   532.23    
      77   803.00    
      78   332.06    

 *** ANSYS - ENGINEERING ANALYSIS SYSTEM  RELEASE Release 16.1     16.1     ***
 ANSYS Academic Teaching Advanced                  
 00203145  VERSION=LINUX x64     16:01:31  JUN 12, 2018 CP=     43.160

                                                                               


 
  ***** POST1 NODAL DEGREE OF FREEDOM LISTING *****                            
 
  LOAD STEP=     1  SUBSTEP=     1                                             
   TIME=    1.0000      LOAD CASE=   0                                         
 
    NODE      VOLT  
      79   325.93    
      80   125.97    
      81   143.79    
      82   386.10    
      83   373.60    
      84   370.09    
      85   370.32    
      86   369.71    
      87   369.93    
      88   369.66    
      89   370.04    
      90   370.19    
      91   372.90    
      92   386.60    
      93   440.10    
      94   212.66    
      95   211.92    
      96   178.77    
      97   179.06    
      98   169.31    
      99   169.45    
     100   167.82    
     101   167.79    
     102   167.51    
     103   167.53    
     104   167.47    
     105   167.44    
     106   167.44    
     107   167.48    
     108   167.46    
     109   167.46    
     110   167.53    
     111   167.66    
     112   167.75    
     113   167.98    
     114   167.78    
     115   168.62    
     116   170.94    
     117   173.45    

 *** ANSYS - ENGINEERING ANALYSIS SYSTEM  RELEASE Release 16.1     16.1     ***
 ANSYS Academic Teaching Advanced                  
 00203145  VERSION=LINUX x64     16:01:31  JUN 12, 2018 CP=     43.160

                                                                               


 
  ***** POST1 NODAL DEGREE OF FREEDOM LISTING *****                            
 
  LOAD STEP=     1  SUBSTEP=     1                                             
   TIME=    1.0000      LOAD CASE=   0                                         
 
    NODE      VOLT  
     118   179.03    
     119   186.94    
     120   664.55    
     121   649.16    
     122   638.03    
     123   630.85    
     124   626.09    
     125   623.91    
     126   623.76    
     127   624.63    
     128   624.99    
     129   623.00    
     130   622.39    
     131   623.85    
     132   624.52    
     133   622.77    
     134   622.49    
     135   623.96    
     136   624.51    
     137   622.75    
     138   623.20    
     139   624.72    
     140   627.52    
     141   625.64    
     142   641.38    
     143   641.62    
     144   694.34    
     145   692.49    
     146   565.76    
     147   406.56    
     148   482.17    
     149   399.14    
     150   374.89    
     151   370.91    
     152   370.15    
     153   369.98    
     154   370.04    
     155   369.94    
     156   370.30    

 *** ANSYS - ENGINEERING ANALYSIS SYSTEM  RELEASE Release 16.1     16.1     ***
 ANSYS Academic Teaching Advanced                  
 00203145  VERSION=LINUX x64     16:01:31  JUN 12, 2018 CP=     43.161

                                                                               


 
  ***** POST1 NODAL DEGREE OF FREEDOM LISTING *****                            
 
  LOAD STEP=     1  SUBSTEP=     1                                             
   TIME=    1.0000      LOAD CASE=   0                                         
 
    NODE      VOLT  
     157   370.61    
     158   370.87    
     159   378.48    
     160   399.23    
     161   271.50    
     162   641.35    
     163   1750.0    
     164   1746.3    
     165   1742.5    
     166   1738.8    
     167   1735.2    
     168   1731.7    
     169   1728.3    
     170   1725.0    
     171   1721.9    
     172   1718.8    
     173   1715.9    
     174   1713.0    
     175   1710.2    
     176   1707.5    
     177   1704.9    
     178   1702.4    
     179   1699.9    
     180   1697.5    
     181   1695.2    
     182   1693.0    
     183   1690.8    
     184   1688.7    
     185   1686.6    
     186   1684.7    
     187   1682.7    
     188   1680.9    
     189   1679.0    
     190   1677.3    
     191   1675.5    
     192   1673.8    
     193   1750.0    
     194   1750.0    
     195   1750.0    

 *** ANSYS - ENGINEERING ANALYSIS SYSTEM  RELEASE Release 16.1     16.1     ***
 ANSYS Academic Teaching Advanced                  
 00203145  VERSION=LINUX x64     16:01:31  JUN 12, 2018 CP=     43.161

                                                                               


 
  ***** POST1 NODAL DEGREE OF FREEDOM LISTING *****                            
 
  LOAD STEP=     1  SUBSTEP=     1                                             
   TIME=    1.0000      LOAD CASE=   0                                         
 
    NODE      VOLT  
     196   1750.0    
     197   1750.0    
     198   1750.0    
     199   1750.0    
     200   1750.0    
     201   1750.0    
     202   1750.0    
     203   1750.0    
     204   1750.0    
     205   1750.0    
     206   1750.0    
     207   1750.0    
     208   1750.0    
     209   1750.0    
     210   1750.0    
     211   1750.0    
     212   1750.0    
     213   1750.0    
     214   1750.0    
     215   1750.0    
     216   1750.0    
     217   1750.0    
     218   1750.0    
     219   1750.0    
     220   1750.0    
     221   1750.0    
     222   1750.0    
     223   1750.0    
     224   1750.0    
     225   1750.0    
     226   1750.0    
     227   1750.0    
     228   1750.0    
     229   1090.6    
     230   1249.2    
     231   1459.9    
     232   1080.4    
     233   1743.1    
     234   1082.3    

 *** ANSYS - ENGINEERING ANALYSIS SYSTEM  RELEASE Release 16.1     16.1     ***
 ANSYS Academic Teaching Advanced                  
 00203145  VERSION=LINUX x64     16:01:31  JUN 12, 2018 CP=     43.162

                                                                               


 
  ***** POST1 NODAL DEGREE OF FREEDOM LISTING *****                            
 
  LOAD STEP=     1  SUBSTEP=     1                                             
   TIME=    1.0000      LOAD CASE=   0                                         
 
    NODE      VOLT  
     235   1250.5    
     236   1731.6    
     237   1712.6    
     238   1150.2    
     239   1232.8    
     240   1435.9    
     241   1433.3    
     242   1741.4    
     243   1721.3    
     244   1736.8    
     245   1731.8    
     246   1741.2    
     247   1743.6    
     248   1022.4    
     249   1161.3    
     250   1020.9    
     251   1692.7    
     252   1686.9    
     253   1668.7    
     254   1665.3    
     255   1665.0    
     256   1646.4    
     257   1653.4    
     258   1654.6    
     259   1641.7    
     260   1634.8    
     261   1625.3    
     262   1620.9    
     263   1624.5    
     264   1605.4    
     265   1593.2    
     266   1601.5    
     267   1544.5    
     268   1568.9    
     269   1538.5    
     270   1456.1    
     271   1391.0    
     272   1200.2    
     273   1295.2    

 *** ANSYS - ENGINEERING ANALYSIS SYSTEM  RELEASE Release 16.1     16.1     ***
 ANSYS Academic Teaching Advanced                  
 00203145  VERSION=LINUX x64     16:01:31  JUN 12, 2018 CP=     43.162

                                                                               


 
  ***** POST1 NODAL DEGREE OF FREEDOM LISTING *****                            
 
  LOAD STEP=     1  SUBSTEP=     1                                             
   TIME=    1.0000      LOAD CASE=   0                                         
 
    NODE      VOLT  
     274   1269.6    
     275   1256.9    
     276   1269.0    
     277   1264.2    
     278   1252.6    
     279   1252.2    
     280   1707.0    
     281   1250.6    
     282   1262.4    
     283   1251.1    
     284   1263.2    
     285   1250.5    
     286   1250.9    
     287   1263.1    
     288   1250.5    
     289   1262.3    
     290   1258.1    
     291   1085.0    
     292   1731.3    
     293   1733.5    
     294   1224.2    
     295   0.0000    
     296   0.0000    
     297   2.9930    
     298   5.6615    
     299   9.2450    
     300   11.686    
     301   11.498    
     302   0.0000    
     303   0.0000    
     304   0.0000    
     305   0.0000    
     306   77.688    
     307   4.3499    
     308   8.2074    
     309   11.519    
     310   0.0000    
     311   75.664    
     312   74.062    

 *** ANSYS - ENGINEERING ANALYSIS SYSTEM  RELEASE Release 16.1     16.1     ***
 ANSYS Academic Teaching Advanced                  
 00203145  VERSION=LINUX x64     16:01:31  JUN 12, 2018 CP=     43.162

                                                                               


 
  ***** POST1 NODAL DEGREE OF FREEDOM LISTING *****                            
 
  LOAD STEP=     1  SUBSTEP=     1                                             
   TIME=    1.0000      LOAD CASE=   0                                         
 
    NODE      VOLT  
     313   72.678    
     314   71.382    
     315   70.151    
     316   68.970    
     317   67.830    
     318   0.0000    
     319   0.0000    
     320   0.0000    
     321   0.0000    
     322   0.0000    
     323   28.001    
     324   16.451    
     325   9.7307    
     326   6.2928    
     327   18.621    
     328   9.6477    
     329   28.164    
     330   49.305    
     331   44.459    
     332   54.537    
     333   20.044    
     334   31.878    
     335   9.2805    
     336   16.183    
     337   5.3775    
     338   4.3804    
     339   1.5735    
     340   1.5394    
     341   19.517    
     342   13.236    
     343   47.785    
     344   37.643    
     345   30.834    
     346   24.486    
     347   10.729    
     348   11.640    
     349   13.306    
     350   13.034    
     351   4.5589    

 *** ANSYS - ENGINEERING ANALYSIS SYSTEM  RELEASE Release 16.1     16.1     ***
 ANSYS Academic Teaching Advanced                  
 00203145  VERSION=LINUX x64     16:01:31  JUN 12, 2018 CP=     43.163

                                                                               


 
  ***** POST1 NODAL DEGREE OF FREEDOM LISTING *****                            
 
  LOAD STEP=     1  SUBSTEP=     1                                             
   TIME=    1.0000      LOAD CASE=   0                                         
 
    NODE      VOLT  
     352   4.0931    
     353   6.5383    
     354   10.050    
     355   7.7819    
     356   17.772    
     357   21.245    
     358   3.0227    
     359   18.795    
     360   36.200    
     361   12.396    
     362   0.0000    
     363   0.0000    
     364   0.0000    
     365   0.0000    
     366   0.0000    
     367   0.0000    
     368   0.0000    
     369   1750.0    
     370   1697.7    
     371   1648.7    
     372   1601.2    
     373   1556.7    
     374   1515.5    
     375   1476.7    
     376   1437.0    
     377   1399.6    
     378   1366.0    
     379   1334.2    
     380   1302.0    
     381   1271.5    
     382   1242.6    
     383   1215.1    
     384   1188.8    
     385   1163.8    
     386   1117.6    
     387   1750.0    
     388   1750.0    
     389   1750.0    
     390   1750.0    

 *** ANSYS - ENGINEERING ANALYSIS SYSTEM  RELEASE Release 16.1     16.1     ***
 ANSYS Academic Teaching Advanced                  
 00203145  VERSION=LINUX x64     16:01:31  JUN 12, 2018 CP=     43.163

                                                                               


 
  ***** POST1 NODAL DEGREE OF FREEDOM LISTING *****                            
 
  LOAD STEP=     1  SUBSTEP=     1                                             
   TIME=    1.0000      LOAD CASE=   0                                         
 
    NODE      VOLT  
     391   1750.0    
     392   1750.0    
     393   1750.0    
     394   1750.0    
     395   1750.0    
     396   1750.0    
     397   1750.0    
     398   1750.0    
     399   1750.0    
     400   1750.0    
     401   1750.0    
     402   1750.0    
     403   1750.0    
     404   1750.0    
     405   1750.0    
     406   0.0000    
     407   0.0000    
     408   0.0000    
     409   0.0000    
     410   0.0000    
     411   0.0000    
     412   0.0000    
     413   0.0000    
     414   0.0000    
     415   0.0000    
     416   0.0000    
     417   0.0000    
     418   0.0000    
     419   0.0000    
     420   0.0000    
     421   0.0000    
     422   0.0000    
     423   0.0000    
     424   0.0000    
     425   0.0000    
     426   0.0000    
     427   0.0000    
     428   0.0000    
     429   0.0000    

 *** ANSYS - ENGINEERING ANALYSIS SYSTEM  RELEASE Release 16.1     16.1     ***
 ANSYS Academic Teaching Advanced                  
 00203145  VERSION=LINUX x64     16:01:31  JUN 12, 2018 CP=     43.163

                                                                               


 
  ***** POST1 NODAL DEGREE OF FREEDOM LISTING *****                            
 
  LOAD STEP=     1  SUBSTEP=     1                                             
   TIME=    1.0000      LOAD CASE=   0                                         
 
    NODE      VOLT  
     430   0.0000    
     431   0.0000    
     432   0.0000    
     433   0.0000    
     434   0.0000    
     435   0.0000    
     436   0.0000    
     437   0.0000    
     438   0.0000    
     439   0.0000    
     440   0.0000    
     441   0.0000    
     442   0.0000    
     443   0.0000    
     444   0.0000    
     445   0.0000    
     446   0.0000    
     447   0.0000    
     448   0.0000    
     449   0.0000    
     450   0.0000    
     451   0.0000    
     452   0.0000    
     453   0.0000    
     454   0.0000    
     455   0.0000    
     456   0.0000    
     457   0.0000    
     458   0.0000    
     459   0.0000    
     460   0.0000    
     461   0.0000    
     462   0.0000    
     463   0.0000    
     464   0.0000    
     465   0.0000    
     466   0.0000    
     467   0.0000    
     468   0.0000    

 *** ANSYS - ENGINEERING ANALYSIS SYSTEM  RELEASE Release 16.1     16.1     ***
 ANSYS Academic Teaching Advanced                  
 00203145  VERSION=LINUX x64     16:01:31  JUN 12, 2018 CP=     43.164

                                                                               


 
  ***** POST1 NODAL DEGREE OF FREEDOM LISTING *****                            
 
  LOAD STEP=     1  SUBSTEP=     1                                             
   TIME=    1.0000      LOAD CASE=   0                                         
 
    NODE      VOLT  
     469   0.0000    
     470   0.0000    
     471   0.0000    
     472   0.0000    
     473   0.0000    
     474   0.0000    
     475   0.0000    
     476   0.0000    
     477   0.0000    
     478   0.0000    
     479   0.0000    
     480   119.16    
     481   53.082    
     482   741.25    
     483   1.7502    
     484   1.2580    
     485   634.56    
     486   629.27    
     487   316.20    
     488   258.13    
     489   909.89    
     490   483.97    
     491   230.58    
     492   1.8843    
     493   366.69    
     494   193.73    
     495   1.6138    
     496  0.32768    
     497   1712.6    
     498   132.19    
     499   704.99    
     500   740.79    
     501   369.44    
     502   899.42    
     503   57.812    
     504   36.611    
     505   689.20    
     506  0.23279E-01
     507   39.904    

 *** ANSYS - ENGINEERING ANALYSIS SYSTEM  RELEASE Release 16.1     16.1     ***
 ANSYS Academic Teaching Advanced                  
 00203145  VERSION=LINUX x64     16:01:31  JUN 12, 2018 CP=     43.164

                                                                               


 
  ***** POST1 NODAL DEGREE OF FREEDOM LISTING *****                            
 
  LOAD STEP=     1  SUBSTEP=     1                                             
   TIME=    1.0000      LOAD CASE=   0                                         
 
    NODE      VOLT  
     508   4.2306    
     509   836.12    
     510  0.10833E-01
     511  0.16953    
     512  0.52423E-02
     513  0.26649E-02
     514  0.21713E-01
     515  0.49833E-02
     516   2.5402    
     517   3.5029    
     518   1.2153    
     519   1.4179    
     520   44.678    
     521   29.460    
     522   19.478    
     523   15.777    
     524   530.70    
     525   607.48    
     526   1011.1    
     527   892.21    
     528   1267.4    
     529   1501.4    
     530   1323.3    
     531   1538.0    
     532   560.04    
     533   477.16    
     534   446.41    
     535   646.46    
     536   688.86    
     537   627.60    
     538   624.28    
     539   491.85    
     540   396.21    
     541   397.80    
     542   689.36    
     543   505.57    
     544   639.26    
     545   787.22    
     546   758.56    

 *** ANSYS - ENGINEERING ANALYSIS SYSTEM  RELEASE Release 16.1     16.1     ***
 ANSYS Academic Teaching Advanced                  
 00203145  VERSION=LINUX x64     16:01:31  JUN 12, 2018 CP=     43.164

                                                                               


 
  ***** POST1 NODAL DEGREE OF FREEDOM LISTING *****                            
 
  LOAD STEP=     1  SUBSTEP=     1                                             
   TIME=    1.0000      LOAD CASE=   0                                         
 
    NODE      VOLT  
     547   734.42    
     548   685.68    
     549   638.15    
     550   594.65    
     551   566.95    
     552   503.21    
     553   439.26    
     554   380.02    
     555   357.37    
     556   329.14    
     557   295.94    
     558   220.07    
     559   760.09    
     560   829.55    
     561   830.53    
     562   787.42    
     563   741.88    
     564   653.14    
     565   570.52    
     566   219.55    
     567   647.21    
     568   561.41    
     569   534.40    
     570   516.61    
     571   395.24    
     572   328.07    
     573   275.87    
     574   232.89    
     575   210.98    
     576   190.73    
     577   174.37    
     578   187.74    
     579   815.74    
     580   878.66    
     581   853.34    
     582   863.64    
     583   885.12    
     584   936.04    
     585   901.84    

 *** ANSYS - ENGINEERING ANALYSIS SYSTEM  RELEASE Release 16.1     16.1     ***
 ANSYS Academic Teaching Advanced                  
 00203145  VERSION=LINUX x64     16:01:31  JUN 12, 2018 CP=     43.165

                                                                               


 
  ***** POST1 NODAL DEGREE OF FREEDOM LISTING *****                            
 
  LOAD STEP=     1  SUBSTEP=     1                                             
   TIME=    1.0000      LOAD CASE=   0                                         
 
    NODE      VOLT  
     586   873.44    
     587   849.53    
     588   827.47    
     589   800.33    
     590   762.67    
     591   718.34    
     592   667.99    
     593   607.47    
     594   491.35    
     595   339.96    
     596   368.33    
     597   204.00    
     598   455.54    
     599   758.47    
     600   529.38    
     601   470.20    
     602   407.03    
     603   351.02    
     604   308.43    
     605   277.88    
     606   254.60    
     607   197.11    
     608   163.42    
     609   160.73    
     610   1056.6    
     611   951.73    
     612   952.05    
     613   952.07    
     614   980.35    
     615   970.07    
     616   919.14    
     617   867.20    
     618   793.48    
     619   682.97    
     620   527.59    
     621   161.54    
     622   394.49    
     623   414.55    
     624   218.76    

 *** ANSYS - ENGINEERING ANALYSIS SYSTEM  RELEASE Release 16.1     16.1     ***
 ANSYS Academic Teaching Advanced                  
 00203145  VERSION=LINUX x64     16:01:31  JUN 12, 2018 CP=     43.165

                                                                               


 
  ***** POST1 NODAL DEGREE OF FREEDOM LISTING *****                            
 
  LOAD STEP=     1  SUBSTEP=     1                                             
   TIME=    1.0000      LOAD CASE=   0                                         
 
    NODE      VOLT  
     625   281.14    
     626   150.25    
     627   176.70    
     628   4.9131    
     629   3.5331    
     630   2.6421    
     631   1.9828    
     632   579.64    
     633   733.93    
     634   446.01    
     635   422.12    
     636   299.40    
     637   230.34    
     638   192.07    
     639   179.46    
     640   165.75    
     641   152.11    
     642   136.93    
     643   132.28    
     644   32.143    
     645   20.294    
     646   1192.5    
     647   1104.2    
     648   1056.5    
     649   1046.1    
     650   1040.5    
     651   1032.2    
     652   1029.5    
     653   1033.3    
     654   1039.4    
     655   1042.7    
     656   1035.5    
     657   1017.1    
     658   994.74    
     659   970.59    
     660   944.37    
     661   914.20    
     662   878.11    
     663   834.61    

 *** ANSYS - ENGINEERING ANALYSIS SYSTEM  RELEASE Release 16.1     16.1     ***
 ANSYS Academic Teaching Advanced                  
 00203145  VERSION=LINUX x64     16:01:31  JUN 12, 2018 CP=     43.166

                                                                               


 
  ***** POST1 NODAL DEGREE OF FREEDOM LISTING *****                            
 
  LOAD STEP=     1  SUBSTEP=     1                                             
   TIME=    1.0000      LOAD CASE=   0                                         
 
    NODE      VOLT  
     664   781.58    
     665   717.38    
     666   647.49    
     667   575.76    
     668   7.5136    
     669   12.537    
     670   1.4618    
     671   2.1320    
     672   3.2282    
     673   1.0879    
     674   138.89    
     675   92.542    
     676   83.072    
     677   293.36    
     678   197.98    
     679   223.57    
     680   143.94    
     681   50.819    
     682   19.802    
     683   7.1562    
     684   3.3994    
     685   2.0126    
     686   1.2421    
     687  0.84274    
     688   548.59    
     689   768.15    
     690   1056.0    
     691   1296.6    
     692   497.31    
     693   336.57    
     694   416.75    
     695   367.89    
     696   298.74    
     697   240.48    
     698   199.03    
     699   158.99    
     700   137.16    
     701   332.68    
     702   130.86    

 *** ANSYS - ENGINEERING ANALYSIS SYSTEM  RELEASE Release 16.1     16.1     ***
 ANSYS Academic Teaching Advanced                  
 00203145  VERSION=LINUX x64     16:01:31  JUN 12, 2018 CP=     43.166

                                                                               


 
  ***** POST1 NODAL DEGREE OF FREEDOM LISTING *****                            
 
  LOAD STEP=     1  SUBSTEP=     1                                             
   TIME=    1.0000      LOAD CASE=   0                                         
 
    NODE      VOLT  
     703   52.960    
     704   21.696    
     705   1403.5    
     706   1300.7    
     707   1175.9    
     708   1131.1    
     709   1114.9    
     710   1112.7    
     711   1107.2    
     712   1077.0    
     713   1031.8    
     714   973.31    
     715   890.96    
     716   776.55    
     717   637.82    
     718   7.1107    
     719   1.3985    
     720   2.4729    
     721  0.82298    
     722   677.25    
     723   205.59    
     724   217.56    
     725   138.52    
     726   171.54    
     727   110.87    
     728   23.926    
     729   18.742    
     730   13.255    
     731   8.8414    
     732   5.9265    
     733   4.1386    
     734   2.9395    
     735   2.1865    
     736   1.5248    
     737   1.0212    
     738  0.82818    
     739  0.65537    
     740  0.48786    
     741   766.21    

 *** ANSYS - ENGINEERING ANALYSIS SYSTEM  RELEASE Release 16.1     16.1     ***
 ANSYS Academic Teaching Advanced                  
 00203145  VERSION=LINUX x64     16:01:31  JUN 12, 2018 CP=     43.166

                                                                               


 
  ***** POST1 NODAL DEGREE OF FREEDOM LISTING *****                            
 
  LOAD STEP=     1  SUBSTEP=     1                                             
   TIME=    1.0000      LOAD CASE=   0                                         
 
    NODE      VOLT  
     742   863.65    
     743   981.45    
     744   1108.6    
     745   1228.8    
     746   1332.2    
     747   410.48    
     748   315.84    
     749   303.48    
     750   159.05    
     751   137.63    
     752   124.74    
     753   115.64    
     754   110.08    
     755   110.74    
     756   100.79    
     757   81.380    
     758   85.453    
     759   482.53    
     760   204.62    
     761   320.15    
     762   84.391    
     763   130.20    
     764   36.709    
     765   55.881    
     766   14.894    
     767   23.603    
     768   6.1687    
     769   9.4379    
     770   1505.9    
     771   1445.8    
     772   1394.2    
     773   1339.2    
     774   1290.2    
     775   1254.6    
     776   1231.7    
     777   1218.2    
     778   1209.4    
     779   1203.3    
     780   1200.0    

 *** ANSYS - ENGINEERING ANALYSIS SYSTEM  RELEASE Release 16.1     16.1     ***
 ANSYS Academic Teaching Advanced                  
 00203145  VERSION=LINUX x64     16:01:31  JUN 12, 2018 CP=     43.167

                                                                               


 
  ***** POST1 NODAL DEGREE OF FREEDOM LISTING *****                            
 
  LOAD STEP=     1  SUBSTEP=     1                                             
   TIME=    1.0000      LOAD CASE=   0                                         
 
    NODE      VOLT  
     781   1196.9    
     782   1191.9    
     783   1182.9    
     784   1169.2    
     785   1151.7    
     786   1131.3    
     787   1108.0    
     788   1081.5    
     789   1050.2    
     790   1013.4    
     791   969.59    
     792   918.03    
     793   861.10    
     794   795.59    
     795   720.73    
     796   468.26    
     797   5.7917    
     798   7.7904    
     799   3.9071    
     800   2.4950    
     801  0.70642    
     802  0.86963    
     803   1.0149    
     804   1.0588    
     805  0.42372    
     806  0.54483    
     807   974.41    
     808   120.11    
     809   170.01    
     810   132.61    
     811   125.19    
     812   81.007    
     813   3.1887    
     814   61.292    
     815   26.143    
     816   16.156    
     817   9.3594    
     818   4.5266    
     819   2.2737    

 *** ANSYS - ENGINEERING ANALYSIS SYSTEM  RELEASE Release 16.1     16.1     ***
 ANSYS Academic Teaching Advanced                  
 00203145  VERSION=LINUX x64     16:01:31  JUN 12, 2018 CP=     43.167

                                                                               


 
  ***** POST1 NODAL DEGREE OF FREEDOM LISTING *****                            
 
  LOAD STEP=     1  SUBSTEP=     1                                             
   TIME=    1.0000      LOAD CASE=   0                                         
 
    NODE      VOLT  
     820   1.5429    
     821   1.1403    
     822  0.77748    
     823  0.49532    
     824  0.24699    
     825  0.48966E-01
     826   927.16    
     827   1028.3    
     828   1222.3    
     829   1410.7    
     830   1590.0    
     831   318.98    
     832   243.10    
     833   224.91    
     834   146.37    
     835   174.50    
     836   111.55    
     837   87.099    
     838   80.967    
     839   67.219    
     840   61.723    
     841   767.91    
     842   316.02    
     843   128.23    
     844   53.392    
     845   23.177    
     846   4.1851    
     847   10.399    
     848   1665.1    
     849   1592.4    
     850   1486.4    
     851   1401.3    
     852   1344.8    
     853   1317.3    
     854   1304.4    
     855   1294.4    
     856   1277.0    
     857   1247.3    
     858   1207.4    

 *** ANSYS - ENGINEERING ANALYSIS SYSTEM  RELEASE Release 16.1     16.1     ***
 ANSYS Academic Teaching Advanced                  
 00203145  VERSION=LINUX x64     16:01:31  JUN 12, 2018 CP=     43.168

                                                                               


 
  ***** POST1 NODAL DEGREE OF FREEDOM LISTING *****                            
 
  LOAD STEP=     1  SUBSTEP=     1                                             
   TIME=    1.0000      LOAD CASE=   0                                         
 
    NODE      VOLT  
     859   1154.1    
     860   1079.7    
     861   979.56    
     862   3.6983    
     863   1.9841    
     864  0.91745    
     865  0.49284    
     866  0.64024    
     867  0.31276    
     868  0.20837    
     869  0.18710    
     870  0.62152E-01
     871  0.14493E-01
     872  0.49611E-02
     873   1276.7    
     874   1257.5    
     875   1406.0    
     876   1329.3    
     877   397.04    
     878   241.86    
     879   66.337    
     880   96.720    
     881   68.564    
     882   101.23    
     883   119.02    
     884   69.749    
     885   84.616    
     886   42.745    
     887   55.719    
     888   1.6123    
     889   1.5529    
     890   1.3086    
     891   1.1874    
     892   35.711    
     893   21.949    
     894   14.810    
     895   11.625    
     896   9.8474    
     897   7.9846    

 *** ANSYS - ENGINEERING ANALYSIS SYSTEM  RELEASE Release 16.1     16.1     ***
 ANSYS Academic Teaching Advanced                  
 00203145  VERSION=LINUX x64     16:01:31  JUN 12, 2018 CP=     43.168

                                                                               


 
  ***** POST1 NODAL DEGREE OF FREEDOM LISTING *****                            
 
  LOAD STEP=     1  SUBSTEP=     1                                             
   TIME=    1.0000      LOAD CASE=   0                                         
 
    NODE      VOLT  
     898   6.1003    
     899   4.4342    
     900   3.7782    
     901   2.8539    
     902   2.3296    
     903   1.9066    
     904   1.3629    
     905   1.1354    
     906   1.0603    
     907   1.0027    
     908  0.86123    
     909  0.73086    
     910  0.61353    
     911  0.50714    
     912  0.41480    
     913  0.32708    
     914  0.24626    
     915  0.16417    
     916  0.93896E-01
     917   1268.0    
     918   1300.5    
     919   1362.5    
     920   1417.9    
     921   1495.2    
     922   1542.8    
     923   1593.3    
     924   1637.8    
     925   1679.5    
     926   1712.5    
     927   1723.3    
     928   160.83    
     929   132.57    
     930   122.25    
     931   125.52    
     932   93.502    
     933   69.412    
     934   56.669    
     935   49.765    
     936   46.014    

 *** ANSYS - ENGINEERING ANALYSIS SYSTEM  RELEASE Release 16.1     16.1     ***
 ANSYS Academic Teaching Advanced                  
 00203145  VERSION=LINUX x64     16:01:31  JUN 12, 2018 CP=     43.168

                                                                               


 
  ***** POST1 NODAL DEGREE OF FREEDOM LISTING *****                            
 
  LOAD STEP=     1  SUBSTEP=     1                                             
   TIME=    1.0000      LOAD CASE=   0                                         
 
    NODE      VOLT  
     937   44.597    
     938   44.575    
     939   40.691    
     940   33.321    
     941   25.748    
     942   847.19    
     943   1082.7    
     944   459.78    
     945   635.44    
     946   216.71    
     947   311.54    
     948   90.272    
     949   134.20    
     950   39.492    
     951   60.441    
     952   17.297    
     953   26.012    
     954   6.6022    
     955   10.796    
     956   1619.7    
     957   1581.4    
     958   1548.4    
     959   1518.6    
     960   1493.9    
     961   1473.5    
     962   1458.4    
     963   1448.3    
     964   1440.0    
     965   1433.8    
     966   1429.2    
     967   1423.8    
     968   1417.8    
     969   1410.1    
     970   1400.5    
     971   1389.1    
     972   1375.8    
     973   1360.9    
     974   1343.3    
     975   1323.2    

 *** ANSYS - ENGINEERING ANALYSIS SYSTEM  RELEASE Release 16.1     16.1     ***
 ANSYS Academic Teaching Advanced                  
 00203145  VERSION=LINUX x64     16:01:31  JUN 12, 2018 CP=     43.169

                                                                               


 
  ***** POST1 NODAL DEGREE OF FREEDOM LISTING *****                            
 
  LOAD STEP=     1  SUBSTEP=     1                                             
   TIME=    1.0000      LOAD CASE=   0                                         
 
    NODE      VOLT  
     976   1300.0    
     977   1272.4    
     978   1239.8    
     979   1194.7    
     980   1154.3    
     981   1083.6    
     982   1.0882    
     983   1.3846    
     984  0.55136    
     985  0.78385    
     986  0.31793    
     987  0.39148    
     988  0.25129    
     989  0.28752    
     990  0.10406    
     991  0.12721    
     992  0.76585E-01
     993  0.41313E-01
     994  0.40571E-01
     995  0.25859E-01
     996  0.10202E-01
     997  0.12145E-01
     998  0.60113E-02
     999  0.27640E-02
    1000  0.35314E-02
    1001  0.18906E-02
    1002  0.10483E-02
    1003  0.10391E-02
    1004  0.26960E-02
    1005  0.70666E-02
    1006  0.29212E-01
    1007  0.11973    
    1008  0.24292    
    1009  0.58068    
    1010  0.65274    
    1011   1.3527    
    1012   2.8163    
    1013   913.94    
    1014   1032.4    

 *** ANSYS - ENGINEERING ANALYSIS SYSTEM  RELEASE Release 16.1     16.1     ***
 ANSYS Academic Teaching Advanced                  
 00203145  VERSION=LINUX x64     16:01:31  JUN 12, 2018 CP=     43.169

                                                                               


 
  ***** POST1 NODAL DEGREE OF FREEDOM LISTING *****                            
 
  LOAD STEP=     1  SUBSTEP=     1                                             
   TIME=    1.0000      LOAD CASE=   0                                         
 
    NODE      VOLT  
    1015   1119.8    
    1016   1182.6    
    1017   1228.6    
    1018   1263.4    
    1019   1287.3    
    1020   1299.7    
    1021   1309.4    
    1022   1328.3    
    1023   1368.7    
    1024   1441.9    
    1025   1535.3    
    1026   6.8365    
    1027   16.227    
    1028   35.634    
    1029   79.958    
    1030   205.54    
    1031   497.17    
    1032   1056.7    
    1033   52.856    
    1034   82.633    
    1035   82.268    
    1036   96.071    
    1037   135.96    
    1038   228.18    
    1039   270.95    
    1040   1665.1    
    1041   1493.6    
    1042   1323.1    
    1043   1120.7    
    1044   963.59    
    1045  0.36927    
    1046  0.62705    
    1047  0.95080    
    1048   1.3422    
    1049   1.6580    
    1050   3.1247    
    1051   6.3545    
    1052   12.722    
    1053   18.744    

 *** ANSYS - ENGINEERING ANALYSIS SYSTEM  RELEASE Release 16.1     16.1     ***
 ANSYS Academic Teaching Advanced                  
 00203145  VERSION=LINUX x64     16:01:31  JUN 12, 2018 CP=     43.170

                                                                               


 
  ***** POST1 NODAL DEGREE OF FREEDOM LISTING *****                            
 
  LOAD STEP=     1  SUBSTEP=     1                                             
   TIME=    1.0000      LOAD CASE=   0                                         
 
    NODE      VOLT  
    1054   38.910    
    1055   2.4374    
    1056   4.4000    
    1057   62.152    
    1058   101.62    
    1059   150.95    
    1060   90.675    
    1061   383.33    
    1062   925.30    
    1063  0.39953    
    1064   230.98    
    1065   161.75    
    1066  0.63147    
    1067   1.5869    
    1068   1.1442    
    1069   4.2648    
    1070   12.206    
    1071   556.81    
    1072   710.39    
    1073   837.43    
    1074   935.84    
    1075   1004.8    
    1076   1055.7    
    1077   1095.0    
    1078   1112.2    
    1079   1112.3    
    1080   1121.1    
    1081   1145.3    
    1082   1228.9    
    1083   1368.6    
    1084   34.032    
    1085   82.115    
    1086   210.97    
    1087   498.06    
    1088   114.92    
    1089   129.38    
    1090   147.47    
    1091   169.87    
    1092   388.06    

 *** ANSYS - ENGINEERING ANALYSIS SYSTEM  RELEASE Release 16.1     16.1     ***
 ANSYS Academic Teaching Advanced                  
 00203145  VERSION=LINUX x64     16:01:31  JUN 12, 2018 CP=     43.170

                                                                               


 
  ***** POST1 NODAL DEGREE OF FREEDOM LISTING *****                            
 
  LOAD STEP=     1  SUBSTEP=     1                                             
   TIME=    1.0000      LOAD CASE=   0                                         
 
    NODE      VOLT  
    1093   1188.6    
    1094   909.90    
    1095   642.76    
    1096   1.0079    
    1097   1.5781    
    1098   2.5104    
    1099   4.7792    
    1100   12.035    
    1101   30.995    
    1102   178.62    
    1103   283.49    
    1104   248.93    
    1105   356.38    
    1106   452.29    
    1107   285.76    
    1108   93.571    
    1109   2.5124    
    1110   596.94    
    1111   744.26    
    1112   834.16    
    1113   894.40    
    1114   944.22    
    1115   992.59    
    1116   965.40    
    1117   945.18    
    1118   971.40    
    1119   942.76    
    1120   147.62    
    1121   179.90    
    1122   214.12    
    1123   492.77    
    1124   566.63    
    1125   174.78    
    1126   257.25    
    1127   302.37    
    1128   350.96    
    1129   453.96    
    1130   441.19    
    1131   614.71    

 *** ANSYS - ENGINEERING ANALYSIS SYSTEM  RELEASE Release 16.1     16.1     ***
 ANSYS Academic Teaching Advanced                  
 00203145  VERSION=LINUX x64     16:01:31  JUN 12, 2018 CP=     43.170

                                                                               


 
  ***** POST1 NODAL DEGREE OF FREEDOM LISTING *****                            
 
  LOAD STEP=     1  SUBSTEP=     1                                             
   TIME=    1.0000      LOAD CASE=   0                                         
 
    NODE      VOLT  
    1132   698.43    
    1133   777.09    
    1134   805.31    
    1135   864.70    
    1136   793.95    
    1137   739.12    
    1138   197.90    
    1139   247.95    
    1140   578.38    
    1141   360.53    
    1142   421.47    
    1143   560.77    
    1144   682.24    
    1145   707.05    
    1146   564.21    
    1147   28.071    
    1148   736.50    
    1149   30.369    
    1150   2.5036    
    1151  0.10927E-01
    1152   32.936    
    1153   30.242    
    1154   38.168    
    1155   66.725    
    1156   65.650    
    1157   25.247    
    1158   21.183    
    1159   23.417    
    1160   42.580    
    1161   51.225    
    1162   46.394    
    1163   53.490    
    1164   64.601    
    1165   63.576    
    1166   41.168    
    1167   29.621    
    1168   37.128    
    1169   34.205    
    1170   27.061    

 *** ANSYS - ENGINEERING ANALYSIS SYSTEM  RELEASE Release 16.1     16.1     ***
 ANSYS Academic Teaching Advanced                  
 00203145  VERSION=LINUX x64     16:01:31  JUN 12, 2018 CP=     43.171

                                                                               


 
  ***** POST1 NODAL DEGREE OF FREEDOM LISTING *****                            
 
  LOAD STEP=     1  SUBSTEP=     1                                             
   TIME=    1.0000      LOAD CASE=   0                                         
 
    NODE      VOLT  
    1171   0.0000    
    1172   12.027    
    1173   8.0114    
    1174   0.0000    
    1175   10.136    
    1176   17.514    
    1177   27.107    
    1178   24.432    
    1179   20.082    
    1180   25.162    
    1181   14.635    
    1182   17.493    
    1183   36.054    
    1184   49.544    
    1185   51.004    
    1186   59.540    
    1187   42.441    
    1188   20.241    
    1189   22.830    
    1190   65.995    
    1191   47.016    
    1192   40.161    
    1193   57.754    
    1194   51.860    
    1195   62.051    
    1196   42.749    
    1197   62.571    
    1198   61.584    
    1199   54.338    
    1200   48.575    
    1201   42.356    
    1202   14.391    
    1203   16.111    
    1204   11.035    
    1205   21.692    
    1206   60.614    
    1207   59.658    
    1208   5.3857    
    1209   11.322    

 *** ANSYS - ENGINEERING ANALYSIS SYSTEM  RELEASE Release 16.1     16.1     ***
 ANSYS Academic Teaching Advanced                  
 00203145  VERSION=LINUX x64     16:01:31  JUN 12, 2018 CP=     43.171

                                                                               


 
  ***** POST1 NODAL DEGREE OF FREEDOM LISTING *****                            
 
  LOAD STEP=     1  SUBSTEP=     1                                             
   TIME=    1.0000      LOAD CASE=   0                                         
 
    NODE      VOLT  
    1210   15.324    
    1211   0.0000    
    1212   4.8417    
    1213   7.0914    
    1214   0.0000    
    1215   21.928    
    1216   18.478    
    1217   38.365    
    1218   34.200    
    1219   0.0000    
    1220   99.845    
    1221   68.701    
    1222   0.0000    
    1223   133.35    
    1224   207.34    
    1225   308.48    
    1226   233.92    
    1227   214.92    
    1228   296.92    
    1229   131.76    
    1230   158.12    
    1231   384.26    
    1232   660.19    
    1233   582.81    
    1234   719.37    
    1235   467.90    
    1236   183.96    
    1237   209.52    
    1238   891.39    
    1239   718.57    
    1240   584.70    
    1241   961.65    
    1242   921.45    
    1243   829.86    
    1244   965.30    
    1245   425.59    
    1246   395.45    
    1247   1202.4    
    1248   1123.9    

 *** ANSYS - ENGINEERING ANALYSIS SYSTEM  RELEASE Release 16.1     16.1     ***
 ANSYS Academic Teaching Advanced                  
 00203145  VERSION=LINUX x64     16:01:31  JUN 12, 2018 CP=     43.172

                                                                               


 
  ***** POST1 NODAL DEGREE OF FREEDOM LISTING *****                            
 
  LOAD STEP=     1  SUBSTEP=     1                                             
   TIME=    1.0000      LOAD CASE=   0                                         
 
    NODE      VOLT  
    1249   1100.4    
    1250   1406.7    
    1251   1267.1    
    1252   1292.3    
    1253   1488.2    
    1254   1571.1    
    1255   1427.9    
    1256   1337.3    
    1257   1374.7    
    1258   1672.2    
    1259   1670.6    
    1260   1403.0    
    1261   1576.6    
    1262   1462.2    
    1263   1501.1    
    1264   1441.2    
    1265   1612.6    
    1266   1669.0    
    1267   1667.5    
    1268   1486.8    
    1269   1557.6    
    1270   1504.5    
    1271   1522.1    
    1272   1494.4    
    1273   1666.0    
    1274   1664.5    
    1275   1523.2    
    1276   1641.9    
    1277   1631.4    
    1278   1540.7    
    1279   1585.0    
    1280   1656.4    
    1281   1666.5    
    1282   1541.2    
    1283   1637.6    
    1284   1596.4    
    1285   1548.2    
    1286   1559.9    
    1287   1663.1    

 *** ANSYS - ENGINEERING ANALYSIS SYSTEM  RELEASE Release 16.1     16.1     ***
 ANSYS Academic Teaching Advanced                  
 00203145  VERSION=LINUX x64     16:01:31  JUN 12, 2018 CP=     43.172

                                                                               


 
  ***** POST1 NODAL DEGREE OF FREEDOM LISTING *****                            
 
  LOAD STEP=     1  SUBSTEP=     1                                             
   TIME=    1.0000      LOAD CASE=   0                                         
 
    NODE      VOLT  
    1288   1661.7    
    1289   1559.5    
    1290   1657.9    
    1291   1574.0    
    1292   1599.8    
    1293   1562.9    
    1294   1663.4    
    1295   1660.4    
    1296   1659.1    
    1297   1572.5    
    1298   1581.3    
    1299   1614.4    
    1300   1671.5    
    1301   1677.4    
    1302   1621.9    
    1303   1581.7    
    1304   1590.5    
    1305   1657.8    
    1306   1656.5    
    1307   1590.0    
    1308   1674.2    
    1309   1596.3    
    1310   1623.3    
    1311   1596.2    
    1312   1675.4    
    1313   1655.2    
    1314   1654.0    
    1315   1603.7    
    1316   1637.4    
    1317   1608.8    
    1318   1607.7    
    1319   1603.2    
    1320   1652.7    
    1321   1651.5    
    1322   1610.4    
    1323   1681.8    
    1324   1687.0    
    1325   1618.6    
    1326   1644.2    

 *** ANSYS - ENGINEERING ANALYSIS SYSTEM  RELEASE Release 16.1     16.1     ***
 ANSYS Academic Teaching Advanced                  
 00203145  VERSION=LINUX x64     16:01:31  JUN 12, 2018 CP=     43.172

                                                                               


 
  ***** POST1 NODAL DEGREE OF FREEDOM LISTING *****                            
 
  LOAD STEP=     1  SUBSTEP=     1                                             
   TIME=    1.0000      LOAD CASE=   0                                         
 
    NODE      VOLT  
    1327   1618.4    
    1328   1691.4    
    1329   1650.3    
    1330   1649.1    
    1331   1624.2    
    1332   1650.0    
    1333   1625.6    
    1334   1632.3    
    1335   1623.2    
    1336   1647.9    
    1337   1646.8    
    1338   1630.6    
    1339   1692.5    
    1340   1689.1    
    1341   1638.2    
    1342   1658.7    
    1343   1696.9    
    1344   1701.7    
    1345   1649.8    
    1346   1695.3    
    1347   1664.5    
    1348   1639.6    
    1349   1644.2    
    1350   1645.6    
    1351   1644.6    
    1352   1645.3    
    1353   1700.8    
    1354   1651.1    
    1355   1667.0    
    1356   1650.3    
    1357   1700.8    
    1358   1643.5    
    1359   1642.5    
    1360   1654.1    
    1361   1661.5    
    1362   1677.3    
    1363   1708.6    
    1364   1715.7    
    1365   1688.9    

 *** ANSYS - ENGINEERING ANALYSIS SYSTEM  RELEASE Release 16.1     16.1     ***
 ANSYS Academic Teaching Advanced                  
 00203145  VERSION=LINUX x64     16:01:31  JUN 12, 2018 CP=     43.173

                                                                               


 
  ***** POST1 NODAL DEGREE OF FREEDOM LISTING *****                            
 
  LOAD STEP=     1  SUBSTEP=     1                                             
   TIME=    1.0000      LOAD CASE=   0                                         
 
    NODE      VOLT  
    1366   1665.7    
    1367   1674.1    
    1368   1641.5    
    1369   1640.5    
    1370   1678.8    
    1371   1717.0    
    1372   1696.9    
    1373   1699.7    
    1374   1688.9    
    1375   1722.1    
    1376   1639.5    
    1377   1638.5    
    1378   1702.8    
    1379   1632.9    
    1380   1682.7    
    1381   1728.9    
    1382   1719.9    
    1383   1728.7    
    1384   1713.1    
    1385   1637.5    
    1386   1636.6    
    1387   1739.9    
    1388   1734.8    
    1389   1727.6    
    1390   1750.0    
    1391   1743.1    
    1392   1743.7    
    1393   1750.0    
    1394   1709.8    
    1395   1708.9    
    1396   1719.1    
    1397   1722.1    
    1398   1716.5    
    1399   1723.2    
    1400  0.10543E-02
    1401  0.42383E-03
    1402  0.43457E-03
    1403  0.38632E-03
    1404   0.0000    

 *** ANSYS - ENGINEERING ANALYSIS SYSTEM  RELEASE Release 16.1     16.1     ***
 ANSYS Academic Teaching Advanced                  
 00203145  VERSION=LINUX x64     16:01:31  JUN 12, 2018 CP=     43.173

                                                                               


 
  ***** POST1 NODAL DEGREE OF FREEDOM LISTING *****                            
 
  LOAD STEP=     1  SUBSTEP=     1                                             
   TIME=    1.0000      LOAD CASE=   0                                         
 
    NODE      VOLT  
    1405   0.0000    
    1406  0.46976E-03
    1407  0.16823E-02
    1408  0.17977E-02
    1409  0.13759E-02
    1410  0.61227E-03
    1411  0.86001E-03
    1412   0.0000    
    1413   0.0000    
    1414  0.10067E-02
    1415  0.23345E-02
    1416  0.31496E-02
    1417  0.14103E-02
    1418  0.16355E-02
    1419  0.11895E-02
    1420   0.0000    
    1421   0.0000    
    1422  0.17474E-02
    1423  0.53122E-02
    1424  0.48077E-02
    1425  0.44919E-02
    1426  0.21675E-02
    1427  0.29833E-02
    1428   0.0000    
    1429   0.0000    
    1430  0.35968E-02
    1431  0.69660E-02
    1432  0.12038E-01
    1433  0.54484E-02
    1434  0.59935E-02
    1435  0.45359E-02
    1436   0.0000    
    1437   0.0000    
    1438  0.60767E-02
    1439  0.20270E-01
    1440  0.17631E-01
    1441  0.18547E-01
    1442  0.85506E-02
    1443  0.11618E-01

 *** ANSYS - ENGINEERING ANALYSIS SYSTEM  RELEASE Release 16.1     16.1     ***
 ANSYS Academic Teaching Advanced                  
 00203145  VERSION=LINUX x64     16:01:31  JUN 12, 2018 CP=     43.174

                                                                               


 
  ***** POST1 NODAL DEGREE OF FREEDOM LISTING *****                            
 
  LOAD STEP=     1  SUBSTEP=     1                                             
   TIME=    1.0000      LOAD CASE=   0                                         
 
    NODE      VOLT  
    1444   0.0000    
    1445   0.0000    
    1446  0.15044E-01
    1447  0.30490E-01
    1448  0.45462E-01
    1449  0.21125E-01
    1450  0.21118E-01
    1451  0.18612E-01
    1452   0.0000    
    1453   0.0000    
    1454  0.19729E-01
    1455  0.73545E-01
    1456  0.70534E-01
    1457  0.59106E-01
    1458  0.25898E-01
    1459  0.34011E-01
    1460   0.0000    
    1461   0.0000    
    1462  0.41668E-01
    1463  0.10355    
    1464  0.11465    
    1465  0.53803E-01
    1466  0.58665E-01
    1467  0.48291E-01
    1468   0.0000    
    1469   0.0000    
    1470  0.64743E-01
    1471  0.18455    
    1472  0.16797    
    1473  0.27020    
    1474  0.12626    
    1475  0.13507    
    1476  0.11636    
    1477   0.0000    
    1478   0.0000    
    1479  0.14362    
    1480  0.43013    
    1481  0.40485    
    1482  0.34377    

 *** ANSYS - ENGINEERING ANALYSIS SYSTEM  RELEASE Release 16.1     16.1     ***
 ANSYS Academic Teaching Advanced                  
 00203145  VERSION=LINUX x64     16:01:31  JUN 12, 2018 CP=     43.174

                                                                               


 
  ***** POST1 NODAL DEGREE OF FREEDOM LISTING *****                            
 
  LOAD STEP=     1  SUBSTEP=     1                                             
   TIME=    1.0000      LOAD CASE=   0                                         
 
    NODE      VOLT  
    1483  0.16410    
    1484  0.18205    
    1485  0.15141    
    1486   0.0000    
    1487   0.0000    
    1488  0.21321    
    1489  0.54139    
    1490  0.49233    
    1491  0.65469    
    1492  0.29474    
    1493  0.35075    
    1494  0.24879    
    1495   0.0000    
    1496   0.0000    
    1497  0.41925    
    1498   1.1007    
    1499  0.91110    
    1500   1.2388    
    1501  0.55248    
    1502  0.61478    
    1503  0.48569    
    1504   0.0000    
    1505   0.0000    
    1506  0.67107    
    1507   2.1131    
    1508   1.8413    
    1509   1122.4    
    1510   1270.5    
    1511   1241.1    
    1512   1296.0    
    1513   1209.2    
    1514   988.30    
    1515   1028.3    
    1516   1218.6    
    1517   1346.1    
    1518   1328.3    
    1519   1361.9    
    1520   1308.2    
    1521   1104.5    

 *** ANSYS - ENGINEERING ANALYSIS SYSTEM  RELEASE Release 16.1     16.1     ***
 ANSYS Academic Teaching Advanced                  
 00203145  VERSION=LINUX x64     16:01:31  JUN 12, 2018 CP=     43.174

                                                                               


 
  ***** POST1 NODAL DEGREE OF FREEDOM LISTING *****                            
 
  LOAD STEP=     1  SUBSTEP=     1                                             
   TIME=    1.0000      LOAD CASE=   0                                         
 
    NODE      VOLT  
    1522   1130.1    
    1523   1286.9    
    1524   1397.1    
    1525   1386.8    
    1526   1407.6    
    1527   1374.0    
    1528   1188.8    
    1529   1205.4    
    1530   1333.6    
    1531   1432.9    
    1532   1425.2    
    1533   1440.4    
    1534   1416.3    
    1535   1246.8    
    1536   1258.4    
    1537   1368.6    
    1538   1459.4    
    1539   1453.9    
    1540   1465.3    
    1541   1447.2    
    1542   1288.9    
    1543   1298.0    
    1544   1394.9    
    1545   1479.6    
    1546   1475.6    
    1547   1484.6    
    1548   1470.2    
    1549   1321.3    
    1550   1327.8    
    1551   1414.0    
    1552   1495.5    
    1553   1492.6    
    1554   1499.2    
    1555   1487.8    
    1556   1344.1    
    1557   1348.3    
    1558   1426.4    
    1559   1506.9    
    1560   1504.9    

 *** ANSYS - ENGINEERING ANALYSIS SYSTEM  RELEASE Release 16.1     16.1     ***
 ANSYS Academic Teaching Advanced                  
 00203145  VERSION=LINUX x64     16:01:31  JUN 12, 2018 CP=     43.175

                                                                               


 
  ***** POST1 NODAL DEGREE OF FREEDOM LISTING *****                            
 
  LOAD STEP=     1  SUBSTEP=     1                                             
   TIME=    1.0000      LOAD CASE=   0                                         
 
    NODE      VOLT  
    1561   1510.3    
    1562   1500.3    
    1563   1357.6    
    1564   1360.2    
    1565   1436.8    
    1566   1517.3    
    1567   1515.2    
    1568   1521.0    
    1569   1511.9    
    1570   1367.4    
    1571   1370.6    
    1572   1452.8    
    1573   1532.0    
    1574   1528.7    
    1575   1537.0    
    1576   1523.7    
    1577   1384.1    
    1578   1389.9    
    1579   1483.6    
    1580   1557.3    
    1581   1549.7    
    1582   1565.2    
    1583   1542.7    
    1584   1416.8    
    1585   1429.2    
    1586   1533.1    
    1587   1594.3    
    1588   1583.1    
    1589   1606.0    
    1590   1573.9    
    1591   1476.0    
    1592   1493.9    
    1593   1599.3    
    1594   1644.6    
    1595   1630.6    
    1596   1660.6    
    1597   1617.7    
    1598   1554.6    
    1599   1577.1    

 *** ANSYS - ENGINEERING ANALYSIS SYSTEM  RELEASE Release 16.1     16.1     ***
 ANSYS Academic Teaching Advanced                  
 00203145  VERSION=LINUX x64     16:01:31  JUN 12, 2018 CP=     43.175

                                                                               


 
  ***** POST1 NODAL DEGREE OF FREEDOM LISTING *****                            
 
  LOAD STEP=     1  SUBSTEP=     1                                             
   TIME=    1.0000      LOAD CASE=   0                                         
 
    NODE      VOLT  
    1600   8.4644    
    1601   8.0660    
    1602   10.435    
    1603   6.2758    
    1604   1075.2    
    1605   1035.2    
    1606   13.585    
    1607   8.6166    
    1608   6.8160    
    1609   21.054    
    1610   21.326    
    1611   26.376    
    1612   17.838    
    1613   998.31    
    1614   963.85    
    1615   33.009    
    1616   20.475    
    1617   16.742    
    1618   48.072    
    1619   49.037    
    1620   61.696    
    1621   42.032    
    1622   931.84    
    1623   901.07    
    1624   75.963    
    1625   46.061    
    1626   38.263    
    1627   109.49    
    1628   111.39    
    1629   134.15    
    1630   94.675    
    1631   872.43    
    1632   845.63    
    1633   165.54    
    1634   104.93    
    1635   84.849    
    1636   258.85    
    1637   246.78    
    1638   293.05    

 *** ANSYS - ENGINEERING ANALYSIS SYSTEM  RELEASE Release 16.1     16.1     ***
 ANSYS Academic Teaching Advanced                  
 00203145  VERSION=LINUX x64     16:01:31  JUN 12, 2018 CP=     43.175

                                                                               


 
  ***** POST1 NODAL DEGREE OF FREEDOM LISTING *****                            
 
  LOAD STEP=     1  SUBSTEP=     1                                             
   TIME=    1.0000      LOAD CASE=   0                                         
 
    NODE      VOLT  
    1639   212.17    
    1640   820.57    
    1641   796.50    
    1642   355.77    
    1643   259.71    
    1644   212.85    
    1645   540.91    
    1646   491.84    
    1647   571.96    
    1648   428.86    
    1649   773.92    
    1650   752.37    
    1651   677.21    
    1652   577.70    
    1653   479.40    
    1654   952.04    
    1655   872.92    
    1656   979.46    
    1657   775.47    
    1658   732.08    
    1659   712.83    
    1660   1118.3    
    1661   1053.8    
    1662   935.69    
    1663   29.477    
    1664   16.650    
    1665   14.381    
    1666   18.759    
    1667   0.0000    
    1668   0.0000    
    1669   12.882    
    1670   39.177    
    1671   44.602    
    1672   43.287    
    1673   23.168    
    1674   22.148    
    1675   23.793    
    1676   0.0000    
    1677   0.0000    

 *** ANSYS - ENGINEERING ANALYSIS SYSTEM  RELEASE Release 16.1     16.1     ***
 ANSYS Academic Teaching Advanced                  
 00203145  VERSION=LINUX x64     16:01:31  JUN 12, 2018 CP=     43.176

                                                                               


 
  ***** POST1 NODAL DEGREE OF FREEDOM LISTING *****                            
 
  LOAD STEP=     1  SUBSTEP=     1                                             
   TIME=    1.0000      LOAD CASE=   0                                         
 
    NODE      VOLT  
    1678   20.833    
    1679   60.765    
    1680   63.713    
    1681   45.187    
    1682   23.920    
    1683   24.182    
    1684   24.312    
    1685   0.0000    
    1686   0.0000    
    1687   23.067    
    1688   64.134    
    1689   65.151    
    1690   52.617    
    1691   28.528    
    1692   26.607    
    1693   30.941    
    1694   0.0000    
    1695   0.0000    
    1696   25.393    
    1697   73.316    
    1698   78.036    
    1699   79.131    
    1700   46.107    
    1701   38.947    
    1702   59.962    
    1703   0.0000    
    1704   0.0000    
    1705   34.274    
    1706   103.64    
    1707   117.73    
    1708   122.02    
    1709   62.086    
    1710   64.052    
    1711   63.314    
    1712   0.0000    
    1713   0.0000    
    1714   72.485    
    1715   176.63    
    1716   177.91    

 *** ANSYS - ENGINEERING ANALYSIS SYSTEM  RELEASE Release 16.1     16.1     ***
 ANSYS Academic Teaching Advanced                  
 00203145  VERSION=LINUX x64     16:01:31  JUN 12, 2018 CP=     43.176

                                                                               


 
  ***** POST1 NODAL DEGREE OF FREEDOM LISTING *****                            
 
  LOAD STEP=     1  SUBSTEP=     1                                             
   TIME=    1.0000      LOAD CASE=   0                                         
 
    NODE      VOLT  
    1717   142.94    
    1718   78.247    
    1719   71.477    
    1720   97.040    
    1721   0.0000    
    1722   0.0000    
    1723   64.711    
    1724   201.65    
    1725   218.16    
    1726   1715.2    
    1727   1731.7    
    1728   1734.9    
    1729   1730.7    
    1730   1750.0    
    1731   1750.0    
    1732   1739.4    
    1733   1700.0    
    1734   1690.4    
    1735   1697.2    
    1736   1717.0    
    1737   1724.8    
    1738   1707.5    
    1739   1750.0    
    1740   1750.0    
    1741   1665.0    
    1742   1615.6    
    1743   1675.0    
    1744   1686.2    
    1745   1663.5    
    1746   1750.0    
    1747   1750.0    
    1748   1696.7    
    1749   1568.1    
    1750   1540.1    
    1751   1517.8    
    1752   1622.2    
    1753   1637.3    
    1754   1611.3    
    1755   1750.0    

 *** ANSYS - ENGINEERING ANALYSIS SYSTEM  RELEASE Release 16.1     16.1     ***
 ANSYS Academic Teaching Advanced                  
 00203145  VERSION=LINUX x64     16:01:31  JUN 12, 2018 CP=     43.177

                                                                               


 
  ***** POST1 NODAL DEGREE OF FREEDOM LISTING *****                            
 
  LOAD STEP=     1  SUBSTEP=     1                                             
   TIME=    1.0000      LOAD CASE=   0                                         
 
    NODE      VOLT  
    1756   1750.0    
    1757   1648.3    
    1758   1434.3    
    1759   1399.5    
    1760   1386.3    
    1761   1544.6    
    1762   1559.1    
    1763   1532.4    
    1764   1750.0    
    1765   1750.0    
    1766   1583.2    
    1767   1264.1    
    1768   1226.0    
    1769   1281.4    
    1770   1484.9    
    1771   1497.4    
    1772   1478.0    
    1773   1750.0    
    1774   1750.0    
    1775   1512.4    
    1776   1123.2    
    1777   1099.3    
    1778  0.12633    
    1779  0.10704    
    1780  0.82627E-01
    1781  0.13356    
    1782   0.0000    
    1783   0.0000    
    1784  0.62501E-01
    1785  0.11353    
    1786  0.15595    
    1787  0.28578    
    1788  0.21259    
    1789  0.18612    
    1790  0.23929    
    1791   0.0000    
    1792   0.0000    
    1793  0.16139    
    1794  0.31212    

 *** ANSYS - ENGINEERING ANALYSIS SYSTEM  RELEASE Release 16.1     16.1     ***
 ANSYS Academic Teaching Advanced                  
 00203145  VERSION=LINUX x64     16:01:31  JUN 12, 2018 CP=     43.177

                                                                               


 
  ***** POST1 NODAL DEGREE OF FREEDOM LISTING *****                            
 
  LOAD STEP=     1  SUBSTEP=     1                                             
   TIME=    1.0000      LOAD CASE=   0                                         
 
    NODE      VOLT  
    1795  0.36296    
    1796  0.45961    
    1797  0.32719    
    1798  0.29636    
    1799  0.35967    
    1800   0.0000    
    1801   0.0000    
    1802  0.26706    
    1803  0.52816    
    1804  0.58607    
    1805  0.67074    
    1806  0.46696    
    1807  0.42932    
    1808  0.50693    
    1809   0.0000    
    1810   0.0000    
    1811  0.39356    
    1812  0.78919    
    1813  0.86579    
    1814  0.92988    
    1815  0.63568    
    1816  0.59194    
    1817  0.68621    
    1818   0.0000    
    1819   0.0000    
    1820  0.54785    
    1821   1.1119    
    1822   1.1969    
    1823   1.0943    
    1824  0.69692    
    1825  0.68868    
    1826  0.72468    
    1827   0.0000    
    1828   0.0000    
    1829  0.67797    
    1830   1.3753    
    1831   1.4272    
    1832   1.2224    
    1833  0.84017    

 *** ANSYS - ENGINEERING ANALYSIS SYSTEM  RELEASE Release 16.1     16.1     ***
 ANSYS Academic Teaching Advanced                  
 00203145  VERSION=LINUX x64     16:01:31  JUN 12, 2018 CP=     43.178

                                                                               


 
  ***** POST1 NODAL DEGREE OF FREEDOM LISTING *****                            
 
  LOAD STEP=     1  SUBSTEP=     1                                             
   TIME=    1.0000      LOAD CASE=   0                                         
 
    NODE      VOLT  
    1834  0.78035    
    1835  0.95194    
    1836   0.0000    
    1837   0.0000    
    1838   1.5654    
    1839   2.1575    
    1840   1.4596    
    1841   1.3525    
    1842   1.5762    
    1843   0.0000    
    1844   0.0000    
    1845   1.1427    
    1846   2.5166    
    1847   2.8014    
    1848   2.5696    
    1849   1.9151    
    1850   1.7261    
    1851   2.1029    
    1852   0.0000    
    1853   0.0000    
    1854   3.1347    
    1855   4.1819    
    1856   2.7886    
    1857   2.6076    
    1858   2.9683    
    1859   0.0000    
    1860   0.0000    
    1861   2.3733    
    1862   5.0878    
    1863   5.6309    
    1864   5.1926    
    1865   4.0608    
    1866   3.4194    
    1867   4.5338    
    1868   0.0000    
    1869   0.0000    
    1870   6.4560    
    1871   8.8925    
    1872   6.0577    

 *** ANSYS - ENGINEERING ANALYSIS SYSTEM  RELEASE Release 16.1     16.1     ***
 ANSYS Academic Teaching Advanced                  
 00203145  VERSION=LINUX x64     16:01:31  JUN 12, 2018 CP=     43.178

                                                                               


 
  ***** POST1 NODAL DEGREE OF FREEDOM LISTING *****                            
 
  LOAD STEP=     1  SUBSTEP=     1                                             
   TIME=    1.0000      LOAD CASE=   0                                         
 
    NODE      VOLT  
    1873   5.6661    
    1874   6.5440    
    1875   0.0000    
    1876   0.0000    
    1877   5.0720    
    1878   10.338    
    1879   11.682    
    1880   12.779    
    1881   8.3903    
    1882   7.4882    
    1883   10.186    
    1884   0.0000    
    1885   0.0000    
    1886   7.0149    
    1887   15.526    
    1888   17.283    
    1889   27.386    
    1890   18.702    
    1891   15.611    
    1892   33.445    
    1893   0.0000    
    1894   0.0000    
    1895   12.204    
    1896   30.601    
    1897   38.626    
    1898   1.2212    
    1899  0.61070    
    1900  0.58191    
    1901  0.64970    
    1902   0.0000    
    1903   0.0000    
    1904  0.57529    
    1905   1.8144    
    1906   1.9256    
    1907   1.6294    
    1908  0.73590    
    1909  0.73438    
    1910  0.71552    
    1911   0.0000    

 *** ANSYS - ENGINEERING ANALYSIS SYSTEM  RELEASE Release 16.1     16.1     ***
 ANSYS Academic Teaching Advanced                  
 00203145  VERSION=LINUX x64     16:01:31  JUN 12, 2018 CP=     43.179

                                                                               


 
  ***** POST1 NODAL DEGREE OF FREEDOM LISTING *****                            
 
  LOAD STEP=     1  SUBSTEP=     1                                             
   TIME=    1.0000      LOAD CASE=   0                                         
 
    NODE      VOLT  
    1912   0.0000    
    1913  0.69500    
    1914   2.6746    
    1915   2.7691    
    1916   49.252    
    1917   39.935    
    1918   45.369    
    1919   34.250    
    1920   50.465    
    1921   59.653    
    1922   51.915    
    1923   76.957    
    1924   61.517    
    1925   66.966    
    1926   56.007    
    1927   72.848    
    1928   94.166    
    1929   84.913    
    1930   110.04    
    1931   84.680    
    1932   92.376    
    1933   78.795    
    1934   99.890    
    1935   135.46    
    1936   125.32    
    1937   82.595    
    1938   77.756    
    1939   64.797    
    1940   91.587    
    1941   50.813    
    1942   83.704    
    1943   96.722    
    1944   69.301    
    1945   49.767    
    1946   48.051    
    1947   46.471    
    1948   80.461    
    1949   312.26    
    1950   318.68    

 *** ANSYS - ENGINEERING ANALYSIS SYSTEM  RELEASE Release 16.1     16.1     ***
 ANSYS Academic Teaching Advanced                  
 00203145  VERSION=LINUX x64     16:01:31  JUN 12, 2018 CP=     43.180

                                                                               


 
  ***** POST1 NODAL DEGREE OF FREEDOM LISTING *****                            
 
  LOAD STEP=     1  SUBSTEP=     1                                             
   TIME=    1.0000      LOAD CASE=   0                                         
 
    NODE      VOLT  
    1951   227.76    
    1952   417.68    
    1953   147.88    
    1954   317.41    
    1955   386.24    
    1956   1365.4    
    1957   1555.7    
    1958   1532.6    
    1959   1572.0    
    1960   1750.0    
    1961   1750.0    
    1962   1513.7    
    1963   1181.3    
    1964   1242.0    
    1965   1262.5    
    1966   1484.1    
    1967   1478.9    
    1968   1495.4    
    1969   1750.0    
    1970   1750.0    
    1971   1475.7    
    1972   1077.2    
    1973   1087.9    
    1974  0.39241E-02
    1975  0.31520E-02
    1976  0.23054E-02
    1977  0.37280E-02
    1978  0.61517E-02
    1979  0.13454E-01
    1980  0.98881E-02
    1981  0.79571E-02
    1982  0.10097E-01
    1983  0.20622E-01
    1984  0.56278E-01
    1985  0.42368E-01
    1986  0.33679E-01
    1987  0.44357E-01
    1988  0.84798E-01
    1989  0.14905    

 *** ANSYS - ENGINEERING ANALYSIS SYSTEM  RELEASE Release 16.1     16.1     ***
 ANSYS Academic Teaching Advanced                  
 00203145  VERSION=LINUX x64     16:01:31  JUN 12, 2018 CP=     43.180

                                                                               


 
  ***** POST1 NODAL DEGREE OF FREEDOM LISTING *****                            
 
  LOAD STEP=     1  SUBSTEP=     1                                             
   TIME=    1.0000      LOAD CASE=   0                                         
 
    NODE      VOLT  
    1990  0.12871    
    1991  0.91086E-01
    1992  0.15878    
    1993  0.21418    
    1994  0.47179    
    1995  0.45575    
    1996  0.30238    
    1997  0.61500    
    1998  0.65503    
    1999  0.34135    
    2000  0.23072    
    2001  0.37419    
    2002  0.10423    
    2003  0.53808    
    2004  0.44602    
    2005  0.30819    
    2006  0.76178    
    2007  0.63557    
    2008  0.46302    
    2009  0.76019    
    2010   1.1124    
    2011   1.5661    
    2012   1.3165    
    2013  0.93086    
    2014   1.6371    
    2015   2.3795    
    2016   2.6198    
    2017   2.3767    
    2018   1.5175    
    2019   3.2558    
    2020   4.0958    
    2021   1082.7    
    2022   1176.7    
    2023   1058.0    
    2024   948.92    
    2025   1007.0    
    2026   1171.4    
    2027   1257.0    
    2028   1151.7    

 *** ANSYS - ENGINEERING ANALYSIS SYSTEM  RELEASE Release 16.1     16.1     ***
 ANSYS Academic Teaching Advanced                  
 00203145  VERSION=LINUX x64     16:01:31  JUN 12, 2018 CP=     43.181

                                                                               


 
  ***** POST1 NODAL DEGREE OF FREEDOM LISTING *****                            
 
  LOAD STEP=     1  SUBSTEP=     1                                             
   TIME=    1.0000      LOAD CASE=   0                                         
 
    NODE      VOLT  
    2029   1057.2    
    2030   1100.8    
    2031   1234.3    
    2032   1312.1    
    2033   1220.4    
    2034   1137.7    
    2035   1168.9    
    2036   1279.9    
    2037   1352.4    
    2038   1269.5    
    2039   1195.6    
    2040   1218.3    
    2041   1314.3    
    2042   1382.6    
    2043   1306.2    
    2044   1238.3    
    2045   1255.8    
    2046   1339.4    
    2047   1405.4    
    2048   1333.8    
    2049   1270.5    
    2050   1282.5    
    2051   1355.0    
    2052   1420.8    
    2053   1351.6    
    2054   1291.3    
    2055   1297.2    
    2056   1365.0    
    2057   1431.4    
    2058   1362.8    
    2059   1302.1    
    2060   1306.6    
    2061   1378.9    
    2062   1443.4    
    2063   1374.3    
    2064   1313.0    
    2065   1322.3    
    2066   1406.5    
    2067   1465.5    

 *** ANSYS - ENGINEERING ANALYSIS SYSTEM  RELEASE Release 16.1     16.1     ***
 ANSYS Academic Teaching Advanced                  
 00203145  VERSION=LINUX x64     16:01:31  JUN 12, 2018 CP=     43.182

                                                                               


 
  ***** POST1 NODAL DEGREE OF FREEDOM LISTING *****                            
 
  LOAD STEP=     1  SUBSTEP=     1                                             
   TIME=    1.0000      LOAD CASE=   0                                         
 
    NODE      VOLT  
    2068   1397.5    
    2069   1335.4    
    2070   1355.6    
    2071   1458.7    
    2072   1505.8    
    2073   1443.1    
    2074   1384.1    
    2075   1420.9    
    2076   1533.4    
    2077   1564.8    
    2078   1513.3    
    2079   1463.7    
    2080   1509.8    
    2081   1630.7    
    2082   1641.7    
    2083   1602.7    
    2084   1678.1    
    2085   1563.1    
    2086   1626.3    
    2087   1660.6    
    2088   13.460    
    2089   10.785    
    2090   13.605    
    2091   8.4572    
    2092   13.048    
    2093   30.026    
    2094   24.791    
    2095   31.746    
    2096   19.347    
    2097   28.337    
    2098   69.941    
    2099   58.224    
    2100   72.741    
    2101   43.025    
    2102   65.970    
    2103   165.39    
    2104   130.52    
    2105   166.63    
    2106   101.85    

 *** ANSYS - ENGINEERING ANALYSIS SYSTEM  RELEASE Release 16.1     16.1     ***
 ANSYS Academic Teaching Advanced                  
 00203145  VERSION=LINUX x64     16:01:31  JUN 12, 2018 CP=     43.182

                                                                               


 
  ***** POST1 NODAL DEGREE OF FREEDOM LISTING *****                            
 
  LOAD STEP=     1  SUBSTEP=     1                                             
   TIME=    1.0000      LOAD CASE=   0                                         
 
    NODE      VOLT  
    2107   161.58    
    2108   389.14    
    2109   316.50    
    2110   372.92    
    2111   256.04    
    2112   392.52    
    2113   813.73    
    2114   692.60    
    2115   733.64    
    2116   635.39    
    2117   903.23    
    2118   55.737    
    2119   37.084    
    2120   50.185    
    2121   59.925    
    2122   74.486    
    2123   63.860    
    2124   44.676    
    2125   63.985    
    2126   81.707    
    2127   81.105    
    2128   69.811    
    2129   47.633    
    2130   67.160    
    2131   84.315    
    2132   90.957    
    2133   93.112    
    2134   62.156    
    2135   84.442    
    2136   102.80    
    2137   122.30    
    2138   161.14    
    2139   115.36    
    2140   136.61    
    2141   90.646    
    2142   153.14    
    2143   200.51    
    2144   191.64    
    2145   183.55    

 *** ANSYS - ENGINEERING ANALYSIS SYSTEM  RELEASE Release 16.1     16.1     ***
 ANSYS Academic Teaching Advanced                  
 00203145  VERSION=LINUX x64     16:01:31  JUN 12, 2018 CP=     43.182

                                                                               


 
  ***** POST1 NODAL DEGREE OF FREEDOM LISTING *****                            
 
  LOAD STEP=     1  SUBSTEP=     1                                             
   TIME=    1.0000      LOAD CASE=   0                                         
 
    NODE      VOLT  
    2146   178.44    
    2147   133.13    
    2148   225.50    
    2149   227.09    
    2150   190.71    
    2151   125.17    
    2152   182.72    
    2153   234.26    
    2154   255.00    
    2155   275.77    
    2156   192.11    
    2157   242.23    
    2158   292.46    
    2159   350.75    
    2160   1606.1    
    2161   1659.4    
    2162   1636.8    
    2163   1627.3    
    2164   1548.0    
    2165   1468.4    
    2166   1566.3    
    2167   1502.1    
    2168   1451.9    
    2169   1367.9    
    2170   1308.2    
    2171   1456.5    
    2172   1355.0    
    2173   1274.3    
    2174   1169.8    
    2175   1150.6    
    2176   1337.8    
    2177   1176.1    
    2178   1072.5    
    2179   999.46    
    2180   1076.2    
    2181   1258.5    
    2182   1084.8    
    2183   942.35    
    2184   921.98    

 *** ANSYS - ENGINEERING ANALYSIS SYSTEM  RELEASE Release 16.1     16.1     ***
 ANSYS Academic Teaching Advanced                  
 00203145  VERSION=LINUX x64     16:01:31  JUN 12, 2018 CP=     43.183

                                                                               


 
  ***** POST1 NODAL DEGREE OF FREEDOM LISTING *****                            
 
  LOAD STEP=     1  SUBSTEP=     1                                             
   TIME=    1.0000      LOAD CASE=   0                                         
 
    NODE      VOLT  
    2185  0.58740E-01
    2186  0.82048E-01
    2187  0.68378E-01
    2188  0.47721E-01
    2189  0.41159E-01
    2190  0.25873    
    2191  0.20444    
    2192  0.20737    
    2193  0.18706    
    2194  0.30760    
    2195  0.47150    
    2196  0.36961    
    2197  0.41689    
    2198  0.43163    
    2199  0.55984    
[...]
   50059   379.87    
   50060   118.96    
   50061   121.69    
   50062   122.57    
   50063   138.06    
   50064   140.85    
   50065   142.50    
   50066   326.51    
   50067   317.37    
   50068   325.29    
   50069   348.22    
   50070   358.38    
   50071   361.59    
   50072   1335.4    
   50073   1350.0    
   50074   1344.9    
   50075   1137.7    
   50076   1130.6    

 *** ANSYS - ENGINEERING ANALYSIS SYSTEM  RELEASE Release 16.1     16.1     ***
 ANSYS Academic Teaching Advanced                  
 00203145  VERSION=LINUX x64     16:01:32  JUN 12, 2018 CP=     43.495

                                                                               


 
  ***** POST1 NODAL DEGREE OF FREEDOM LISTING *****                            
 
  LOAD STEP=     1  SUBSTEP=     1                                             
   TIME=    1.0000      LOAD CASE=   0                                         
 
    NODE      VOLT  
   50077   1115.0    
   50078   877.54    
   50079   865.36    
   50080   850.09    
   50081  0.76646    
   50082  0.76797    
   50083  0.79078    
   50084   3.4870    
   50085   3.4135    
   50086   3.5620    
   50087   7.2698    
   50088   7.1014    
   50089   7.4738    
   50090   16.757    
   50091   16.835    
   50092   17.652    
   50093   130.23    
   50094   129.59    
   50095   133.83    
   50096   200.49    
   50097   198.48    
   50098   205.72    
   50099   239.38    
   50100   228.49    
   50101   236.65    
   50102   112.27    
   50103   111.61    
   50104   119.03    
   50105  0.89913    
   50106  0.92955    
   50107  0.92994    
   50108   2.5366    
   50109   2.6771    
   50110   2.6177    
   50111   8.4500    
   50112   8.9889    
   50113   9.0408    
   50114   577.80    
   50115   568.50    

 *** ANSYS - ENGINEERING ANALYSIS SYSTEM  RELEASE Release 16.1     16.1     ***
 ANSYS Academic Teaching Advanced                  
 00203145  VERSION=LINUX x64     16:01:32  JUN 12, 2018 CP=     43.496

                                                                               


 
  ***** POST1 NODAL DEGREE OF FREEDOM LISTING *****                            
 
  LOAD STEP=     1  SUBSTEP=     1                                             
   TIME=    1.0000      LOAD CASE=   0                                         
 
    NODE      VOLT  
   50116   561.43    
   50117   720.79    
   50118   712.31    
   50119   705.23    
   50120   841.19    
   50121   834.69    
   50122   828.22    
   50123   926.15    
   50124   921.70    
   50125   914.78    
   50126   985.84    
   50127   982.56    
   50128   975.24    
   50129   1032.9    
   50130   1030.2    
   50131   1022.9    
   50132   1064.6    
   50133   1063.7    
   50134   1056.0    
   50135   1063.7    
   50136   1064.3    
   50137   1054.7    
   50138   1061.6    
   50139   1061.2    
   50140   1051.0    
   50141   1076.6    
   50142   1075.6    
   50143   1065.5    
   50144   1115.9    
   50145   1110.3    
   50146   1100.3    
   50147   1270.6    
   50148   1258.5    
   50149   1257.6    
   50150   17.349    
   50151   18.455    
   50152   17.213    
   50153   43.334    
   50154   45.920    

 *** ANSYS - ENGINEERING ANALYSIS SYSTEM  RELEASE Release 16.1     16.1     ***
 ANSYS Academic Teaching Advanced                  
 00203145  VERSION=LINUX x64     16:01:32  JUN 12, 2018 CP=     43.496

                                                                               


 
  ***** POST1 NODAL DEGREE OF FREEDOM LISTING *****                            
 
  LOAD STEP=     1  SUBSTEP=     1                                             
   TIME=    1.0000      LOAD CASE=   0                                         
 
    NODE      VOLT  
   50155   43.042    
   50156   151.68    
   50157   150.13    
   50158   153.58    
   50159   176.66    
   50160   175.16    
   50161   179.23    
   50162   209.47    
   50163   204.60    
   50164   208.22    
   50165   276.28    
   50166   276.82    
   50167   283.87    
   50168   410.13    
   50169   407.49    
   50170   416.84    
   50171   683.28    
   50172   702.55    
   50173   679.22    
   50174   1.2848    
   50175   1.2398    
   50176   1.2626    
   50177   2.2321    
   50178   2.1580    
   50179   2.2284    
   50180   3.2718    
   50181   3.1509    
   50182   3.1654    
   50183   6.6716    
   50184   6.3286    
   50185   6.3292    
   50186   23.771    
   50187   22.473    
   50188   23.844    
   50189   154.09    
   50190   157.47    
   50191   158.04    
   50192   236.34    
   50193   243.74    

 *** ANSYS - ENGINEERING ANALYSIS SYSTEM  RELEASE Release 16.1     16.1     ***
 ANSYS Academic Teaching Advanced                  
 00203145  VERSION=LINUX x64     16:01:32  JUN 12, 2018 CP=     43.496

                                                                               


 
  ***** POST1 NODAL DEGREE OF FREEDOM LISTING *****                            
 
  LOAD STEP=     1  SUBSTEP=     1                                             
   TIME=    1.0000      LOAD CASE=   0                                         
 
    NODE      VOLT  
   50194   242.91    
   50195   358.79    
   50196   360.53    
   50197   374.84    
   50198   3.7272    
   50199   3.8750    
   50200   3.9244    
   50201   590.18    
   50202   574.60    
   50203   583.64    
   50204   731.96    
   50205   718.76    
   50206   727.15    
   50207   840.18    
   50208   829.15    
   50209   834.67    
   50210   913.17    
   50211   903.23    
   50212   907.00    
   50213   966.20    
   50214   956.53    
   50215   959.58    
   50216   1011.9    
   50217   1003.3    
   50218   1005.9    
   50219   1025.7    
   50220   1018.2    
   50221   1017.5    
   50222   1011.1    
   50223   1001.5    
   50224   1000.8    
   50225   1015.1    
   50226   1004.0    
   50227   1005.2    
   50228   1024.4    
   50229   1011.6    
   50230   1012.5    
   50231   1122.8    
   50232   1105.5    

 *** ANSYS - ENGINEERING ANALYSIS SYSTEM  RELEASE Release 16.1     16.1     ***
 ANSYS Academic Teaching Advanced                  
 00203145  VERSION=LINUX x64     16:01:32  JUN 12, 2018 CP=     43.497

                                                                               


 
  ***** POST1 NODAL DEGREE OF FREEDOM LISTING *****                            
 
  LOAD STEP=     1  SUBSTEP=     1                                             
   TIME=    1.0000      LOAD CASE=   0                                         
 
    NODE      VOLT  
   50233   1118.7    
   50234   147.21    
   50235   145.78    
   50236   149.32    
   50237   149.46    
   50238   150.79    
   50239   152.77    
   50240   178.74    
   50241   180.89    
   50242   182.79    
   50243   253.86    
   50244   251.22    
   50245   256.90    
   50246   320.46    
   50247   314.76    
   50248   321.12    
   50249   436.21    
   50250   428.09    
   50251   434.06    
   50252   485.30    
   50253   480.16    
   50254   465.18    
   50255   197.24    
   50256   198.69    
   50257   202.68    
   50258   322.82    
   50259   326.13    
   50260   334.37    
   50261   409.60    
   50262   424.75    
   50263   419.92    
   50264   657.38    
   50265   649.37    
   50266   648.35    
   50267   762.36    
   50268   756.76    
   50269   753.28    
   50270   835.21    
   50271   831.75    

 *** ANSYS - ENGINEERING ANALYSIS SYSTEM  RELEASE Release 16.1     16.1     ***
 ANSYS Academic Teaching Advanced                  
 00203145  VERSION=LINUX x64     16:01:32  JUN 12, 2018 CP=     43.497

                                                                               


 
  ***** POST1 NODAL DEGREE OF FREEDOM LISTING *****                            
 
  LOAD STEP=     1  SUBSTEP=     1                                             
   TIME=    1.0000      LOAD CASE=   0                                         
 
    NODE      VOLT  
   50272   827.13    
   50273   883.88    
   50274   880.87    
   50275   875.28    
   50276   939.43    
   50277   935.38    
   50278   931.00    
   50279   901.80    
   50280   904.19    
   50281   893.25    
   50282   897.22    
   50283   894.55    
   50284   884.28    
   50285   880.93    
   50286   889.17    
   50287   871.95    
   50288   172.28    
   50289   173.94    
   50290   175.63    
   50291   176.16    
   50292   174.13    
   50293   177.44    
   50294   213.80    
   50295   211.25    
   50296   215.59    
   50297   256.96    
   50298   251.47    
   50299   254.01    
   50300   300.85    
   50301   303.55    
   50302   307.27    
   50303   382.57    
   50304   381.43    
   50305   388.23    
   50306   505.63    
   50307   503.39    
   50308   511.25    
   50309   566.84    
   50310   560.96    

 *** ANSYS - ENGINEERING ANALYSIS SYSTEM  RELEASE Release 16.1     16.1     ***
 ANSYS Academic Teaching Advanced                  
 00203145  VERSION=LINUX x64     16:01:32  JUN 12, 2018 CP=     43.497

                                                                               


 
  ***** POST1 NODAL DEGREE OF FREEDOM LISTING *****                            
 
  LOAD STEP=     1  SUBSTEP=     1                                             
   TIME=    1.0000      LOAD CASE=   0                                         
 
    NODE      VOLT  
   50311   570.15    
   50312   727.81    
   50313   749.06    
   50314   734.98    
   50315   201.89    
   50316   206.12    
   50317   203.71    
   50318   558.53    
   50319   566.95    
   50320   577.56    
   50321   683.18    
   50322   674.91    
   50323   681.01    
   50324   771.54    
   50325   763.65    
   50326   768.56    
   50327   825.58    
   50328   817.77    
   50329   820.33    
   50330   873.03    
   50331   864.10    
   50332   867.73    
   50333   833.16    
   50334   822.14    
   50335   820.40    
   50336   205.51    
   50337   206.66    
   50338   209.37    
   50339   300.29    
   50340   296.41    
   50341   303.00    
   50342   354.30    
   50343   351.46    
   50344   358.07    
   50345   407.68    
   50346   400.37    
   50347   405.60    
   50348   531.77    
   50349   523.76    

 *** ANSYS - ENGINEERING ANALYSIS SYSTEM  RELEASE Release 16.1     16.1     ***
 ANSYS Academic Teaching Advanced                  
 00203145  VERSION=LINUX x64     16:01:32  JUN 12, 2018 CP=     43.498

                                                                               


 
  ***** POST1 NODAL DEGREE OF FREEDOM LISTING *****                            
 
  LOAD STEP=     1  SUBSTEP=     1                                             
   TIME=    1.0000      LOAD CASE=   0                                         
 
    NODE      VOLT  
   50350   530.10    
   50351   558.89    
   50352   563.38    
   50353   566.59    
   50354   632.27    
   50355   626.80    
   50356   624.95    
   50357   724.25    
   50358   718.34    
   50359   717.47    
   50360   795.80    
   50361   792.24    
   50362   786.68    
   50363   562.36    
   50364   579.31    
   50365   570.38    
   50366   687.34    
   50367   696.38    
   50368   702.20    
   50369   355.68    
   50370   360.21    
   50371   363.90    
   50372   475.68    
   50373   474.19    
   50374   482.27    
   50375   603.58    
   50376   603.05    
   50377   610.58    
   50378   653.04    
   50379   645.62    
   50380   651.66    
   50381   448.77    
   50382   455.40    
   50383   441.95    
   50384   438.57    
   50385   434.73    
   50386   445.38    
   50387   513.39    
   50388   503.32    

 *** ANSYS - ENGINEERING ANALYSIS SYSTEM  RELEASE Release 16.1     16.1     ***
 ANSYS Academic Teaching Advanced                  
 00203145  VERSION=LINUX x64     16:01:32  JUN 12, 2018 CP=     43.498

                                                                               


 
  ***** POST1 NODAL DEGREE OF FREEDOM LISTING *****                            
 
  LOAD STEP=     1  SUBSTEP=     1                                             
   TIME=    1.0000      LOAD CASE=   0                                         
 
    NODE      VOLT  
   50389   511.85    
   50390   1412.5    
   50391   1440.1    
   50392   1428.2    
   50393   1577.8    
   50394   1606.2    
   50395   1603.0    
   50396   1370.0    
   50397   1382.6    
   50398   1403.0    
   50399   1214.0    
   50400   1239.4    
   50401   1208.4    
   50402   1074.0    
   50403   1059.9    
   50404   1028.6    
   50405   738.62    
   50406   757.44    
   50407   720.05    
   50408   498.17    
   50409   522.83    
   50410   505.94    
   50411   11.246    
   50412   10.900    
   50413   13.198    
   50414   20.642    
   50415   18.762    
   50416   20.419    
   50417   40.472    
   50418   38.701    
   50419   38.425    
   50420  0.78196    
   50421  0.79465    
   50422  0.95064    
   50423   2.2485    
   50424   2.0713    
   50425   2.3423    
   50426   1.5162    
   50427   1.6751    

 *** ANSYS - ENGINEERING ANALYSIS SYSTEM  RELEASE Release 16.1     16.1     ***
 ANSYS Academic Teaching Advanced                  
 00203145  VERSION=LINUX x64     16:01:32  JUN 12, 2018 CP=     43.498

                                                                               


 
  ***** POST1 NODAL DEGREE OF FREEDOM LISTING *****                            
 
  LOAD STEP=     1  SUBSTEP=     1                                             
   TIME=    1.0000      LOAD CASE=   0                                         
 
    NODE      VOLT  
   50428   1.6717    
   50429  0.10750E-01
   50430  0.87189E-02
   50431  0.10610E-01
   50432  0.23844E-02
   50433  0.18381E-02
   50434  0.16639E-02
   50435  0.28879E-02
   50436  0.31532E-02
   50437  0.25909E-02
   50438  0.11507    
   50439  0.11797    
   50440  0.14054    
   50441  0.18804    
   50442  0.21195    
   50443  0.20501    
   50444  0.72251E-02
   50445  0.65584E-02
   50446  0.71366E-02
   50447   956.34    
   50448   966.29    
   50449   989.84    
   50450   4.5244    
   50451   4.7770    
   50452   4.8772    
   50453   3.5699    
   50454   3.8012    
   50455   3.5666    
   50456   47.477    
   50457   49.927    
   50458   49.376    
   50459   28.999    
   50460   30.028    
   50461   27.220    
   50462  0.16237E-01
   50463  0.15392E-01
   50464  0.16936E-01
   50465  0.29628E-01
   50466  0.32428E-01

 *** ANSYS - ENGINEERING ANALYSIS SYSTEM  RELEASE Release 16.1     16.1     ***
 ANSYS Academic Teaching Advanced                  
 00203145  VERSION=LINUX x64     16:01:32  JUN 12, 2018 CP=     43.499

                                                                               


 
  ***** POST1 NODAL DEGREE OF FREEDOM LISTING *****                            
 
  LOAD STEP=     1  SUBSTEP=     1                                             
   TIME=    1.0000      LOAD CASE=   0                                         
 
    NODE      VOLT  
   50467  0.32539E-01
   50468   781.98    
   50469   816.25    
   50470   805.03    
   50471   600.17    
   50472   625.95    
   50473   599.40    
   50474   29.282    
   50475   27.849    
   50476   28.889    
   50477   66.972    
   50478   70.091    
   50479   71.068    
   50480   994.79    
   50481   1014.2    
   50482   995.46    
   50483   798.36    
   50484   801.36    
   50485   780.27    
   50486   452.07    
   50487   460.93    
   50488   439.39    
   50489   785.70    
   50490   791.22    
   50491   780.36    
   50492   696.49    
   50493   691.10    
   50494   684.10    
   50495   683.73    
   50496   662.78    
   50497   655.27    
   50498   769.56    
   50499   740.85    
   50500   765.88    
   50501   155.14    
   50502   163.85    
   50503   159.45    
   50504   115.03    
   50505   118.46    

 *** ANSYS - ENGINEERING ANALYSIS SYSTEM  RELEASE Release 16.1     16.1     ***
 ANSYS Academic Teaching Advanced                  
 00203145  VERSION=LINUX x64     16:01:32  JUN 12, 2018 CP=     43.499

                                                                               


 
  ***** POST1 NODAL DEGREE OF FREEDOM LISTING *****                            
 
  LOAD STEP=     1  SUBSTEP=     1                                             
   TIME=    1.0000      LOAD CASE=   0                                         
 
    NODE      VOLT  
   50506   114.49    
   50507   1725.5    
   50508   1730.4    
   50509   1729.4    
   50510   1696.7    
   50511   1703.3    
   50512   1698.1    
   50513  0.26258    
   50514  0.24572    
   50515  0.25464    
   50516  0.41194    
   50517  0.40378    
   50518  0.42531    
   50519   2.1381    
   50520   2.2657    
   50521   2.1400    
   50522   1.2059    
   50523   1.2241    
   50524   1.1444    
   50525   182.13    
   50526   183.28    
   50527   187.65    
   50528   198.88    
   50529   206.60    
   50530   204.78    
   50531   312.42    
   50532   309.24    
   50533   323.96    
   50534   414.87    
   50535   425.60    
   50536   431.32    
   50537   1.7753    
   50538   1.7895    
   50539   1.8414    
   50540   1.8325    
   50541   1.9098    
   50542   1.8644    
   50543   297.51    
   50544   315.60    

 *** ANSYS - ENGINEERING ANALYSIS SYSTEM  RELEASE Release 16.1     16.1     ***
 ANSYS Academic Teaching Advanced                  
 00203145  VERSION=LINUX x64     16:01:32  JUN 12, 2018 CP=     43.499

                                                                               


 
  ***** POST1 NODAL DEGREE OF FREEDOM LISTING *****                            
 
  LOAD STEP=     1  SUBSTEP=     1                                             
   TIME=    1.0000      LOAD CASE=   0                                         
 
    NODE      VOLT  
   50545   301.77    
   50546   173.16    
   50547   176.29    
   50548   165.16    
   50549   480.64    
   50550   486.49    
   50551   491.95    
   50552   470.55    
   50553   483.83    
   50554   475.46    
   50555   942.92    
   50556   945.77    
   50557   937.21    
   50558   880.34    
   50559   873.50    
   50560   870.23    
   50561   233.85    
   50562   233.84    
   50563   229.43    
   50564   344.42    
   50565   354.60    
   50566   351.26    
   50567   288.03    
   50568   293.12    
   50569   286.03    
   50570   606.90    
   50571   608.70    
   50572   617.35    
   50573   641.62    
   50574   649.85    
   50575   649.12    
   50576   553.44    
   50577   532.01    
   50578   544.76    
   50579   728.27    
   50580   714.99    
   50581   738.93    
   50582   1.1693    
   50583   1.1687    

 *** ANSYS - ENGINEERING ANALYSIS SYSTEM  RELEASE Release 16.1     16.1     ***
 ANSYS Academic Teaching Advanced                  
 00203145  VERSION=LINUX x64     16:01:32  JUN 12, 2018 CP=     43.500

                                                                               


 
  ***** POST1 NODAL DEGREE OF FREEDOM LISTING *****                            
 
  LOAD STEP=     1  SUBSTEP=     1                                             
   TIME=    1.0000      LOAD CASE=   0                                         
 
    NODE      VOLT  
   50584   1.2003    
   50585   1.2888    
   50586   1.3315    
   50587   1.3165    
   50588   1.7035    
   50589   1.7445    
   50590   1.7939    
   50591   1.6949    
   50592   1.7646    
   50593   1.7222    
   50594   756.36    
   50595   755.29    
   50596   749.53    
   50597   734.16    
   50598   725.59    
   50599   727.67    
   50600   57.995    
   50601   61.234    
   50602   61.690    
   50603   46.904    
   50604   49.752    
   50605   47.527    
   50606   115.52    
   50607   117.26    
   50608   119.35    
   50609   120.27    
   50610   123.64    
   50611   122.59    

 MAXIMUM ABSOLUTE VALUES
 NODE        163
 VALUE    1750.0    
