
 PRINT VOLT NODAL SOLUTION PER NODE

 *** ANSYS - ENGINEERING ANALYSIS SYSTEM  RELEASE Release 16.1     16.1     ***
 ANSYS Academic Teaching Advanced                  
 00203145  VERSION=LINUX x64     16:01:30  JUN 12, 2018 CP=     44.280

                                                                               


 
  ***** POST1 NODAL DEGREE OF FREEDOM LISTING *****                            
 
  LOAD STEP=     1  SUBSTEP=     1                                             
   TIME=    1.0000      LOAD CASE=   0                                         
 
    NODE      VOLT  
       1   989.44    
       2   0.0000    
       3   822.31    
       4   676.83    
       5   497.02    
       6   345.01    
       7   156.44    
       8   0.0000    
       9   0.0000    
      10   0.0000    
      11   0.0000    
      12   0.0000    
      13   0.0000    
      14   0.0000    
      15   0.0000    
      16   0.0000    
      17   0.0000    
      18   0.0000    
      19   0.0000    
      20   0.0000    
      21   0.0000    
      22   0.0000    
      23   0.0000    
      24   0.0000    
      25   0.0000    
      26   0.0000    
      27   0.0000    
      28   0.0000    
      29   0.0000    
      30   0.0000    
      31   0.0000    
      32   0.0000    
      33   0.0000    
      34   0.0000    
      35   0.0000    
      36   0.0000    
      37   0.0000    
      38   1177.9    
      39   44.717    

 *** ANSYS - ENGINEERING ANALYSIS SYSTEM  RELEASE Release 16.1     16.1     ***
 ANSYS Academic Teaching Advanced                  
 00203145  VERSION=LINUX x64     16:01:30  JUN 12, 2018 CP=     44.280

                                                                               


 
  ***** POST1 NODAL DEGREE OF FREEDOM LISTING *****                            
 
  LOAD STEP=     1  SUBSTEP=     1                                             
   TIME=    1.0000      LOAD CASE=   0                                         
 
    NODE      VOLT  
      40   78.088    
      41   107.55    
      42   1156.6    
      43   1140.9    
      44   1128.2    
      45   1117.0    
      46   1098.3    
      47   1083.0    
      48   1059.1    
      49   1040.3    
      50   1020.0    
      51   1017.7    
      52   1001.3    
      53   997.38    
      54   997.27    
      55   991.43    
      56   992.26    
      57   1001.5    
      58   993.95    
      59   988.96    
      60   990.81    
      61   1001.3    
      62   992.61    
      63   989.38    
      64   991.27    
      65   1001.4    
      66   991.43    
      67   989.36    
      68   992.37    
      69   1001.3    
      70   990.94    
      71   217.94    
      72   713.28    
      73   457.28    
      74   525.37    
      75   833.71    
      76   547.44    
      77   825.94    
      78   341.55    

 *** ANSYS - ENGINEERING ANALYSIS SYSTEM  RELEASE Release 16.1     16.1     ***
 ANSYS Academic Teaching Advanced                  
 00203145  VERSION=LINUX x64     16:01:30  JUN 12, 2018 CP=     44.282

                                                                               


 
  ***** POST1 NODAL DEGREE OF FREEDOM LISTING *****                            
 
  LOAD STEP=     1  SUBSTEP=     1                                             
   TIME=    1.0000      LOAD CASE=   0                                         
 
    NODE      VOLT  
      79   335.25    
      80   129.57    
      81   147.89    
      82   397.13    
      83   384.27    
      84   380.66    
      85   380.90    
      86   380.28    
      87   380.50    
      88   380.23    
      89   380.61    
      90   380.77    
      91   383.55    
      92   397.64    
      93   452.68    
      94   218.74    
      95   217.98    
      96   183.88    
      97   184.17    
      98   174.15    
      99   174.30    
     100   172.61    
     101   172.59    
     102   172.29    
     103   172.32    
     104   172.25    
     105   172.22    
     106   172.23    
     107   172.26    
     108   172.24    
     109   172.25    
     110   172.32    
     111   172.45    
     112   172.54    
     113   172.78    
     114   172.58    
     115   173.44    
     116   175.83    
     117   178.41    

 *** ANSYS - ENGINEERING ANALYSIS SYSTEM  RELEASE Release 16.1     16.1     ***
 ANSYS Academic Teaching Advanced                  
 00203145  VERSION=LINUX x64     16:01:30  JUN 12, 2018 CP=     44.282

                                                                               


 
  ***** POST1 NODAL DEGREE OF FREEDOM LISTING *****                            
 
  LOAD STEP=     1  SUBSTEP=     1                                             
   TIME=    1.0000      LOAD CASE=   0                                         
 
    NODE      VOLT  
     118   184.14    
     119   192.28    
     120   683.53    
     121   667.70    
     122   656.26    
     123   648.88    
     124   643.98    
     125   641.74    
     126   641.58    
     127   642.48    
     128   642.84    
     129   640.80    
     130   640.17    
     131   641.68    
     132   642.37    
     133   640.57    
     134   640.28    
     135   641.79    
     136   642.35    
     137   640.54    
     138   641.00    
     139   642.57    
     140   645.45    
     141   643.52    
     142   659.71    
     143   659.95    
     144   714.18    
     145   712.27    
     146   581.92    
     147   418.17    
     148   495.95    
     149   410.55    
     150   385.60    
     151   381.51    
     152   380.73    
     153   380.55    
     154   380.61    
     155   380.51    
     156   380.88    

 *** ANSYS - ENGINEERING ANALYSIS SYSTEM  RELEASE Release 16.1     16.1     ***
 ANSYS Academic Teaching Advanced                  
 00203145  VERSION=LINUX x64     16:01:30  JUN 12, 2018 CP=     44.282

                                                                               


 
  ***** POST1 NODAL DEGREE OF FREEDOM LISTING *****                            
 
  LOAD STEP=     1  SUBSTEP=     1                                             
   TIME=    1.0000      LOAD CASE=   0                                         
 
    NODE      VOLT  
     157   381.20    
     158   381.46    
     159   389.29    
     160   410.64    
     161   279.26    
     162   659.67    
     163   1800.0    
     164   1796.2    
     165   1792.3    
     166   1788.5    
     167   1784.8    
     168   1781.2    
     169   1777.7    
     170   1774.3    
     171   1771.1    
     172   1767.9    
     173   1764.9    
     174   1762.0    
     175   1759.1    
     176   1756.3    
     177   1753.6    
     178   1751.0    
     179   1748.5    
     180   1746.1    
     181   1743.7    
     182   1741.4    
     183   1739.1    
     184   1736.9    
     185   1734.8    
     186   1732.8    
     187   1730.8    
     188   1728.9    
     189   1727.0    
     190   1725.2    
     191   1723.4    
     192   1721.7    
     193   1800.0    
     194   1800.0    
     195   1800.0    

 *** ANSYS - ENGINEERING ANALYSIS SYSTEM  RELEASE Release 16.1     16.1     ***
 ANSYS Academic Teaching Advanced                  
 00203145  VERSION=LINUX x64     16:01:30  JUN 12, 2018 CP=     44.282

                                                                               


 
  ***** POST1 NODAL DEGREE OF FREEDOM LISTING *****                            
 
  LOAD STEP=     1  SUBSTEP=     1                                             
   TIME=    1.0000      LOAD CASE=   0                                         
 
    NODE      VOLT  
     196   1800.0    
     197   1800.0    
     198   1800.0    
     199   1800.0    
     200   1800.0    
     201   1800.0    
     202   1800.0    
     203   1800.0    
     204   1800.0    
     205   1800.0    
     206   1800.0    
     207   1800.0    
     208   1800.0    
     209   1800.0    
     210   1800.0    
     211   1800.0    
     212   1800.0    
     213   1800.0    
     214   1800.0    
     215   1800.0    
     216   1800.0    
     217   1800.0    
     218   1800.0    
     219   1800.0    
     220   1800.0    
     221   1800.0    
     222   1800.0    
     223   1800.0    
     224   1800.0    
     225   1800.0    
     226   1800.0    
     227   1800.0    
     228   1800.0    
     229   1121.8    
     230   1284.9    
     231   1501.6    
     232   1111.3    
     233   1792.9    
     234   1113.2    

 *** ANSYS - ENGINEERING ANALYSIS SYSTEM  RELEASE Release 16.1     16.1     ***
 ANSYS Academic Teaching Advanced                  
 00203145  VERSION=LINUX x64     16:01:30  JUN 12, 2018 CP=     44.282

                                                                               


 
  ***** POST1 NODAL DEGREE OF FREEDOM LISTING *****                            
 
  LOAD STEP=     1  SUBSTEP=     1                                             
   TIME=    1.0000      LOAD CASE=   0                                         
 
    NODE      VOLT  
     235   1286.2    
     236   1781.1    
     237   1761.6    
     238   1183.0    
     239   1268.0    
     240   1476.9    
     241   1474.3    
     242   1791.1    
     243   1770.5    
     244   1786.4    
     245   1781.2    
     246   1791.0    
     247   1793.4    
     248   1051.6    
     249   1194.4    
     250   1050.0    
     251   1741.0    
     252   1735.1    
     253   1716.4    
     254   1712.9    
     255   1712.6    
     256   1693.5    
     257   1700.6    
     258   1701.9    
     259   1688.6    
     260   1681.5    
     261   1671.7    
     262   1667.2    
     263   1670.9    
     264   1651.3    
     265   1638.7    
     266   1647.2    
     267   1588.6    
     268   1613.8    
     269   1582.4    
     270   1497.7    
     271   1430.8    
     272   1234.4    
     273   1332.3    

 *** ANSYS - ENGINEERING ANALYSIS SYSTEM  RELEASE Release 16.1     16.1     ***
 ANSYS Academic Teaching Advanced                  
 00203145  VERSION=LINUX x64     16:01:30  JUN 12, 2018 CP=     44.283

                                                                               


 
  ***** POST1 NODAL DEGREE OF FREEDOM LISTING *****                            
 
  LOAD STEP=     1  SUBSTEP=     1                                             
   TIME=    1.0000      LOAD CASE=   0                                         
 
    NODE      VOLT  
     274   1305.9    
     275   1292.8    
     276   1305.3    
     277   1300.3    
     278   1288.4    
     279   1288.0    
     280   1755.7    
     281   1286.3    
     282   1298.4    
     283   1286.9    
     284   1299.3    
     285   1286.2    
     286   1286.6    
     287   1299.2    
     288   1286.2    
     289   1298.3    
     290   1294.1    
     291   1116.0    
     292   1780.7    
     293   1783.1    
     294   1259.1    
     295   0.0000    
     296   0.0000    
     297   3.0786    
     298   5.8232    
     299   9.5092    
     300   12.019    
     301   11.826    
     302   0.0000    
     303   0.0000    
     304   0.0000    
     305   0.0000    
     306   79.908    
     307   4.4742    
     308   8.4419    
     309   11.848    
     310   0.0000    
     311   77.826    
     312   76.178    

 *** ANSYS - ENGINEERING ANALYSIS SYSTEM  RELEASE Release 16.1     16.1     ***
 ANSYS Academic Teaching Advanced                  
 00203145  VERSION=LINUX x64     16:01:30  JUN 12, 2018 CP=     44.284

                                                                               


 
  ***** POST1 NODAL DEGREE OF FREEDOM LISTING *****                            
 
  LOAD STEP=     1  SUBSTEP=     1                                             
   TIME=    1.0000      LOAD CASE=   0                                         
 
    NODE      VOLT  
     313   74.754    
     314   73.422    
     315   72.155    
     316   70.941    
     317   69.768    
     318   0.0000    
     319   0.0000    
     320   0.0000    
     321   0.0000    
     322   0.0000    
     323   28.801    
     324   16.921    
     325   10.009    
     326   6.4726    
     327   19.153    
     328   9.9233    
     329   28.969    
     330   50.714    
     331   45.729    
     332   56.095    
     333   20.617    
     334   32.789    
     335   9.5457    
     336   16.645    
     337   5.5311    
     338   4.5055    
     339   1.6185    
     340   1.5834    
     341   20.074    
     342   13.615    
     343   49.151    
     344   38.719    
     345   31.715    
     346   25.185    
     347   11.036    
     348   11.973    
     349   13.686    
     350   13.406    
     351   4.6892    

 *** ANSYS - ENGINEERING ANALYSIS SYSTEM  RELEASE Release 16.1     16.1     ***
 ANSYS Academic Teaching Advanced                  
 00203145  VERSION=LINUX x64     16:01:30  JUN 12, 2018 CP=     44.284

                                                                               


 
  ***** POST1 NODAL DEGREE OF FREEDOM LISTING *****                            
 
  LOAD STEP=     1  SUBSTEP=     1                                             
   TIME=    1.0000      LOAD CASE=   0                                         
 
    NODE      VOLT  
     352   4.2100    
     353   6.7251    
     354   10.337    
     355   8.0043    
     356   18.280    
     357   21.852    
     358   3.1090    
     359   19.332    
     360   37.234    
     361   12.750    
     362   0.0000    
     363   0.0000    
     364   0.0000    
     365   0.0000    
     366   0.0000    
     367   0.0000    
     368   0.0000    
     369   1800.0    
     370   1746.2    
     371   1695.8    
     372   1647.0    
     373   1601.1    
     374   1558.8    
     375   1518.9    
     376   1478.1    
     377   1439.6    
     378   1405.0    
     379   1372.3    
     380   1339.2    
     381   1307.8    
     382   1278.1    
     383   1249.8    
     384   1222.8    
     385   1197.0    
     386   1149.6    
     387   1800.0    
     388   1800.0    
     389   1800.0    
     390   1800.0    

 *** ANSYS - ENGINEERING ANALYSIS SYSTEM  RELEASE Release 16.1     16.1     ***
 ANSYS Academic Teaching Advanced                  
 00203145  VERSION=LINUX x64     16:01:30  JUN 12, 2018 CP=     44.284

                                                                               


 
  ***** POST1 NODAL DEGREE OF FREEDOM LISTING *****                            
 
  LOAD STEP=     1  SUBSTEP=     1                                             
   TIME=    1.0000      LOAD CASE=   0                                         
 
    NODE      VOLT  
     391   1800.0    
     392   1800.0    
     393   1800.0    
     394   1800.0    
     395   1800.0    
     396   1800.0    
     397   1800.0    
     398   1800.0    
     399   1800.0    
     400   1800.0    
     401   1800.0    
     402   1800.0    
     403   1800.0    
     404   1800.0    
     405   1800.0    
     406   0.0000    
     407   0.0000    
     408   0.0000    
     409   0.0000    
     410   0.0000    
     411   0.0000    
     412   0.0000    
     413   0.0000    
     414   0.0000    
     415   0.0000    
     416   0.0000    
     417   0.0000    
     418   0.0000    
     419   0.0000    
     420   0.0000    
     421   0.0000    
     422   0.0000    
     423   0.0000    
     424   0.0000    
     425   0.0000    
     426   0.0000    
     427   0.0000    
     428   0.0000    
     429   0.0000    

 *** ANSYS - ENGINEERING ANALYSIS SYSTEM  RELEASE Release 16.1     16.1     ***
 ANSYS Academic Teaching Advanced                  
 00203145  VERSION=LINUX x64     16:01:30  JUN 12, 2018 CP=     44.284

                                                                               


 
  ***** POST1 NODAL DEGREE OF FREEDOM LISTING *****                            
 
  LOAD STEP=     1  SUBSTEP=     1                                             
   TIME=    1.0000      LOAD CASE=   0                                         
 
    NODE      VOLT  
     430   0.0000    
     431   0.0000    
     432   0.0000    
     433   0.0000    
     434   0.0000    
     435   0.0000    
     436   0.0000    
     437   0.0000    
     438   0.0000    
     439   0.0000    
     440   0.0000    
     441   0.0000    
     442   0.0000    
     443   0.0000    
     444   0.0000    
     445   0.0000    
     446   0.0000    
     447   0.0000    
     448   0.0000    
     449   0.0000    
     450   0.0000    
     451   0.0000    
     452   0.0000    
     453   0.0000    
     454   0.0000    
     455   0.0000    
     456   0.0000    
     457   0.0000    
     458   0.0000    
     459   0.0000    
     460   0.0000    
     461   0.0000    
     462   0.0000    
     463   0.0000    
     464   0.0000    
     465   0.0000    
     466   0.0000    
     467   0.0000    
     468   0.0000    

 *** ANSYS - ENGINEERING ANALYSIS SYSTEM  RELEASE Release 16.1     16.1     ***
 ANSYS Academic Teaching Advanced                  
 00203145  VERSION=LINUX x64     16:01:30  JUN 12, 2018 CP=     44.284

                                                                               


 
  ***** POST1 NODAL DEGREE OF FREEDOM LISTING *****                            
 
  LOAD STEP=     1  SUBSTEP=     1                                             
   TIME=    1.0000      LOAD CASE=   0                                         
 
    NODE      VOLT  
     469   0.0000    
     470   0.0000    
     471   0.0000    
     472   0.0000    
     473   0.0000    
     474   0.0000    
     475   0.0000    
     476   0.0000    
     477   0.0000    
     478   0.0000    
     479   0.0000    
     480   122.57    
     481   54.599    
     482   762.43    
     483   1.8003    
     484   1.2939    
     485   652.69    
     486   647.25    
     487   325.23    
     488   265.51    
     489   935.88    
     490   497.80    
     491   237.17    
     492   1.9382    
     493   377.16    
     494   199.26    
     495   1.6599    
     496  0.33705    
     497   1761.6    
     498   135.97    
     499   725.13    
     500   761.96    
     501   379.99    
     502   925.12    
     503   59.464    
     504   37.657    
     505   708.89    
     506  0.23944E-01
     507   41.044    

 *** ANSYS - ENGINEERING ANALYSIS SYSTEM  RELEASE Release 16.1     16.1     ***
 ANSYS Academic Teaching Advanced                  
 00203145  VERSION=LINUX x64     16:01:30  JUN 12, 2018 CP=     44.285

                                                                               


 
  ***** POST1 NODAL DEGREE OF FREEDOM LISTING *****                            
 
  LOAD STEP=     1  SUBSTEP=     1                                             
   TIME=    1.0000      LOAD CASE=   0                                         
 
    NODE      VOLT  
     508   4.3515    
     509   860.01    
     510  0.11143E-01
     511  0.17438    
     512  0.53920E-02
     513  0.27410E-02
     514  0.22334E-01
     515  0.51257E-02
     516   2.6128    
     517   3.6030    
     518   1.2500    
     519   1.4584    
     520   45.955    
     521   30.302    
     522   20.035    
     523   16.228    
     524   545.86    
     525   624.83    
     526   1040.0    
     527   917.70    
     528   1303.6    
     529   1544.3    
     530   1361.1    
     531   1582.0    
     532   576.04    
     533   490.79    
     534   459.16    
     535   664.93    
     536   708.54    
     537   645.53    
     538   642.12    
     539   505.90    
     540   407.53    
     541   409.17    
     542   709.06    
     543   520.01    
     544   657.52    
     545   809.72    
     546   780.24    

 *** ANSYS - ENGINEERING ANALYSIS SYSTEM  RELEASE Release 16.1     16.1     ***
 ANSYS Academic Teaching Advanced                  
 00203145  VERSION=LINUX x64     16:01:30  JUN 12, 2018 CP=     44.285

                                                                               


 
  ***** POST1 NODAL DEGREE OF FREEDOM LISTING *****                            
 
  LOAD STEP=     1  SUBSTEP=     1                                             
   TIME=    1.0000      LOAD CASE=   0                                         
 
    NODE      VOLT  
     547   755.40    
     548   705.27    
     549   656.39    
     550   611.64    
     551   583.15    
     552   517.59    
     553   451.81    
     554   390.87    
     555   367.58    
     556   338.54    
     557   304.39    
     558   226.35    
     559   781.81    
     560   853.25    
     561   854.26    
     562   809.92    
     563   763.07    
     564   671.80    
     565   586.82    
     566   225.82    
     567   665.70    
     568   577.45    
     569   549.67    
     570   531.37    
     571   406.53    
     572   337.45    
     573   283.75    
     574   239.55    
     575   217.00    
     576   196.18    
     577   179.35    
     578   193.11    
     579   839.05    
     580   903.76    
     581   877.72    
     582   888.32    
     583   910.41    
     584   962.79    
     585   927.61    

 *** ANSYS - ENGINEERING ANALYSIS SYSTEM  RELEASE Release 16.1     16.1     ***
 ANSYS Academic Teaching Advanced                  
 00203145  VERSION=LINUX x64     16:01:30  JUN 12, 2018 CP=     44.285

                                                                               


 
  ***** POST1 NODAL DEGREE OF FREEDOM LISTING *****                            
 
  LOAD STEP=     1  SUBSTEP=     1                                             
   TIME=    1.0000      LOAD CASE=   0                                         
 
    NODE      VOLT  
     586   898.39    
     587   873.80    
     588   851.11    
     589   823.19    
     590   784.46    
     591   738.86    
     592   687.07    
     593   624.83    
     594   505.38    
     595   349.67    
     596   378.85    
     597   209.83    
     598   468.55    
     599   780.15    
     600   544.50    
     601   483.63    
     602   418.66    
     603   361.05    
     604   317.24    
     605   285.81    
     606   261.88    
     607   202.74    
     608   168.09    
     609   165.33    
     610   1086.8    
     611   978.92    
     612   979.26    
     613   979.27    
     614   1008.4    
     615   997.79    
     616   945.40    
     617   891.97    
     618   816.15    
     619   702.49    
     620   542.67    
     621   166.15    
     622   405.76    
     623   426.39    
     624   225.01    

 *** ANSYS - ENGINEERING ANALYSIS SYSTEM  RELEASE Release 16.1     16.1     ***
 ANSYS Academic Teaching Advanced                  
 00203145  VERSION=LINUX x64     16:01:30  JUN 12, 2018 CP=     44.285

                                                                               


 
  ***** POST1 NODAL DEGREE OF FREEDOM LISTING *****                            
 
  LOAD STEP=     1  SUBSTEP=     1                                             
   TIME=    1.0000      LOAD CASE=   0                                         
 
    NODE      VOLT  
     625   289.18    
     626   154.54    
     627   181.75    
     628   5.0534    
     629   3.6340    
     630   2.7176    
     631   2.0395    
     632   596.20    
     633   754.90    
     634   458.76    
     635   434.18    
     636   307.96    
     637   236.92    
     638   197.56    
     639   184.59    
     640   170.49    
     641   156.45    
     642   140.85    
     643   136.06    
     644   33.061    
     645   20.874    
     646   1226.5    
     647   1135.8    
     648   1086.7    
     649   1076.0    
     650   1070.2    
     651   1061.7    
     652   1058.9    
     653   1062.9    
     654   1069.1    
     655   1072.5    
     656   1065.1    
     657   1046.2    
     658   1023.2    
     659   998.32    
     660   971.36    
     661   940.32    
     662   903.20    
     663   858.45    

 *** ANSYS - ENGINEERING ANALYSIS SYSTEM  RELEASE Release 16.1     16.1     ***
 ANSYS Academic Teaching Advanced                  
 00203145  VERSION=LINUX x64     16:01:30  JUN 12, 2018 CP=     44.285

                                                                               


 
  ***** POST1 NODAL DEGREE OF FREEDOM LISTING *****                            
 
  LOAD STEP=     1  SUBSTEP=     1                                             
   TIME=    1.0000      LOAD CASE=   0                                         
 
    NODE      VOLT  
     664   803.91    
     665   737.88    
     666   665.99    
     667   592.21    
     668   7.7283    
     669   12.895    
     670   1.5036    
     671   2.1929    
     672   3.3205    
     673   1.1190    
     674   142.86    
     675   95.186    
     676   85.445    
     677   301.74    
     678   203.64    
     679   229.96    
     680   148.05    
     681   52.271    
     682   20.368    
     683   7.3607    
     684   3.4965    
     685   2.0701    
     686   1.2776    
     687  0.86682    
     688   564.27    
     689   790.10    
     690   1086.2    
     691   1333.6    
     692   511.52    
     693   346.19    
     694   428.65    
     695   378.41    
     696   307.28    
     697   247.35    
     698   204.72    
     699   163.54    
     700   141.08    
     701   342.19    
     702   134.60    

 *** ANSYS - ENGINEERING ANALYSIS SYSTEM  RELEASE Release 16.1     16.1     ***
 ANSYS Academic Teaching Advanced                  
 00203145  VERSION=LINUX x64     16:01:30  JUN 12, 2018 CP=     44.285

                                                                               


 
  ***** POST1 NODAL DEGREE OF FREEDOM LISTING *****                            
 
  LOAD STEP=     1  SUBSTEP=     1                                             
   TIME=    1.0000      LOAD CASE=   0                                         
 
    NODE      VOLT  
     703   54.474    
     704   22.316    
     705   1443.6    
     706   1337.9    
     707   1209.5    
     708   1163.4    
     709   1146.8    
     710   1144.5    
     711   1138.9    
     712   1107.8    
     713   1061.3    
     714   1001.1    
     715   916.41    
     716   798.74    
     717   656.04    
     718   7.3139    
     719   1.4385    
     720   2.5436    
     721  0.84649    
     722   696.60    
     723   211.46    
     724   223.77    
     725   142.48    
     726   176.44    
     727   114.04    
     728   24.610    
     729   19.278    
     730   13.633    
     731   9.0940    
     732   6.0959    
     733   4.2568    
     734   3.0235    
     735   2.2490    
     736   1.5684    
     737   1.0504    
     738  0.85184    
     739  0.67410    
     740  0.50180    
     741   788.10    

 *** ANSYS - ENGINEERING ANALYSIS SYSTEM  RELEASE Release 16.1     16.1     ***
 ANSYS Academic Teaching Advanced                  
 00203145  VERSION=LINUX x64     16:01:30  JUN 12, 2018 CP=     44.287

                                                                               


 
  ***** POST1 NODAL DEGREE OF FREEDOM LISTING *****                            
 
  LOAD STEP=     1  SUBSTEP=     1                                             
   TIME=    1.0000      LOAD CASE=   0                                         
 
    NODE      VOLT  
     742   888.33    
     743   1009.5    
     744   1140.3    
     745   1263.9    
     746   1370.2    
     747   422.20    
     748   324.87    
     749   312.15    
     750   163.59    
     751   141.56    
     752   128.31    
     753   118.94    
     754   113.23    
     755   113.90    
     756   103.67    
     757   83.705    
     758   87.895    
     759   496.31    
     760   210.46    
     761   329.30    
     762   86.802    
     763   133.92    
     764   37.758    
     765   57.478    
     766   15.320    
     767   24.278    
     768   6.3449    
     769   9.7075    
     770   1548.9    
     771   1487.1    
     772   1434.1    
     773   1377.4    
     774   1327.0    
     775   1290.4    
     776   1266.9    
     777   1253.0    
     778   1243.9    
     779   1237.6    
     780   1234.2    

 *** ANSYS - ENGINEERING ANALYSIS SYSTEM  RELEASE Release 16.1     16.1     ***
 ANSYS Academic Teaching Advanced                  
 00203145  VERSION=LINUX x64     16:01:30  JUN 12, 2018 CP=     44.287

                                                                               


 
  ***** POST1 NODAL DEGREE OF FREEDOM LISTING *****                            
 
  LOAD STEP=     1  SUBSTEP=     1                                             
   TIME=    1.0000      LOAD CASE=   0                                         
 
    NODE      VOLT  
     781   1231.1    
     782   1226.0    
     783   1216.7    
     784   1202.6    
     785   1184.6    
     786   1163.7    
     787   1139.6    
     788   1112.4    
     789   1080.2    
     790   1042.3    
     791   997.30    
     792   944.26    
     793   885.70    
     794   818.32    
     795   741.33    
     796   481.64    
     797   5.9571    
     798   8.0130    
     799   4.0187    
     800   2.5663    
     801  0.72660    
     802  0.89448    
     803   1.0439    
     804   1.0891    
     805  0.43582    
     806  0.56040    
     807   1002.2    
     808   123.54    
     809   174.87    
     810   136.40    
     811   128.77    
     812   83.321    
     813   3.2798    
     814   63.043    
     815   26.890    
     816   16.618    
     817   9.6269    
     818   4.6560    
     819   2.3386    

 *** ANSYS - ENGINEERING ANALYSIS SYSTEM  RELEASE Release 16.1     16.1     ***
 ANSYS Academic Teaching Advanced                  
 00203145  VERSION=LINUX x64     16:01:30  JUN 12, 2018 CP=     44.287

                                                                               


 
  ***** POST1 NODAL DEGREE OF FREEDOM LISTING *****                            
 
  LOAD STEP=     1  SUBSTEP=     1                                             
   TIME=    1.0000      LOAD CASE=   0                                         
 
    NODE      VOLT  
     820   1.5870    
     821   1.1729    
     822  0.79970    
     823  0.50947    
     824  0.25404    
     825  0.50365E-01
     826   953.65    
     827   1057.7    
     828   1257.2    
     829   1451.0    
     830   1635.5    
     831   328.10    
     832   250.05    
     833   231.33    
     834   150.55    
     835   179.48    
     836   114.74    
     837   89.587    
     838   83.281    
     839   69.139    
     840   63.486    
     841   789.85    
     842   325.05    
     843   131.90    
     844   54.917    
     845   23.839    
     846   4.3046    
     847   10.696    
     848   1712.7    
     849   1637.9    
     850   1528.8    
     851   1441.3    
     852   1383.2    
     853   1354.9    
     854   1341.7    
     855   1331.4    
     856   1313.4    
     857   1283.0    
     858   1241.9    

 *** ANSYS - ENGINEERING ANALYSIS SYSTEM  RELEASE Release 16.1     16.1     ***
 ANSYS Academic Teaching Advanced                  
 00203145  VERSION=LINUX x64     16:01:30  JUN 12, 2018 CP=     44.287

                                                                               


 
  ***** POST1 NODAL DEGREE OF FREEDOM LISTING *****                            
 
  LOAD STEP=     1  SUBSTEP=     1                                             
   TIME=    1.0000      LOAD CASE=   0                                         
 
    NODE      VOLT  
     859   1187.0    
     860   1110.6    
     861   1007.5    
     862   3.8040    
     863   2.0408    
     864  0.94366    
     865  0.50692    
     866  0.65853    
     867  0.32170    
     868  0.21433    
     869  0.19245    
     870  0.63928E-01
     871  0.14907E-01
     872  0.51029E-02
     873   1313.2    
     874   1293.4    
     875   1446.1    
     876   1367.3    
     877   408.38    
     878   248.77    
     879   68.232    
     880   99.483    
     881   70.523    
     882   104.13    
     883   122.42    
     884   71.742    
     885   87.034    
     886   43.967    
     887   57.311    
     888   1.6584    
     889   1.5973    
     890   1.3460    
     891   1.2213    
     892   36.731    
     893   22.576    
     894   15.233    
     895   11.957    
     896   10.129    
     897   8.2127    

 *** ANSYS - ENGINEERING ANALYSIS SYSTEM  RELEASE Release 16.1     16.1     ***
 ANSYS Academic Teaching Advanced                  
 00203145  VERSION=LINUX x64     16:01:30  JUN 12, 2018 CP=     44.287

                                                                               


 
  ***** POST1 NODAL DEGREE OF FREEDOM LISTING *****                            
 
  LOAD STEP=     1  SUBSTEP=     1                                             
   TIME=    1.0000      LOAD CASE=   0                                         
 
    NODE      VOLT  
     898   6.2746    
     899   4.5609    
     900   3.8861    
     901   2.9355    
     902   2.3962    
     903   1.9611    
     904   1.4019    
     905   1.1679    
     906   1.0906    
     907   1.0314    
     908  0.88584    
     909  0.75174    
     910  0.63106    
     911  0.52163    
     912  0.42665    
     913  0.33643    
     914  0.25330    
     915  0.16886    
     916  0.96578E-01
     917   1304.2    
     918   1337.6    
     919   1401.4    
     920   1458.4    
     921   1538.0    
     922   1586.9    
     923   1638.8    
     924   1684.6    
     925   1727.5    
     926   1761.4    
     927   1772.5    
     928   165.43    
     929   136.36    
     930   125.75    
     931   129.11    
     932   96.174    
     933   71.396    
     934   58.289    
     935   51.187    
     936   47.329    

 *** ANSYS - ENGINEERING ANALYSIS SYSTEM  RELEASE Release 16.1     16.1     ***
 ANSYS Academic Teaching Advanced                  
 00203145  VERSION=LINUX x64     16:01:30  JUN 12, 2018 CP=     44.288

                                                                               


 
  ***** POST1 NODAL DEGREE OF FREEDOM LISTING *****                            
 
  LOAD STEP=     1  SUBSTEP=     1                                             
   TIME=    1.0000      LOAD CASE=   0                                         
 
    NODE      VOLT  
     937   45.871    
     938   45.849    
     939   41.853    
     940   34.273    
     941   26.484    
     942   871.39    
     943   1113.6    
     944   472.92    
     945   653.60    
     946   222.90    
     947   320.44    
     948   92.851    
     949   138.03    
     950   40.620    
     951   62.168    
     952   17.791    
     953   26.755    
     954   6.7908    
     955   11.105    
     956   1666.0    
     957   1626.6    
     958   1592.7    
     959   1562.0    
     960   1536.6    
     961   1515.6    
     962   1500.1    
     963   1489.6    
     964   1481.1    
     965   1474.8    
     966   1470.0    
     967   1464.5    
     968   1458.3    
     969   1450.4    
     970   1440.5    
     971   1428.8    
     972   1415.1    
     973   1399.8    
     974   1381.7    
     975   1361.0    

 *** ANSYS - ENGINEERING ANALYSIS SYSTEM  RELEASE Release 16.1     16.1     ***
 ANSYS Academic Teaching Advanced                  
 00203145  VERSION=LINUX x64     16:01:30  JUN 12, 2018 CP=     44.289

                                                                               


 
  ***** POST1 NODAL DEGREE OF FREEDOM LISTING *****                            
 
  LOAD STEP=     1  SUBSTEP=     1                                             
   TIME=    1.0000      LOAD CASE=   0                                         
 
    NODE      VOLT  
     976   1337.2    
     977   1308.8    
     978   1275.2    
     979   1228.8    
     980   1187.3    
     981   1114.6    
     982   1.1193    
     983   1.4242    
     984  0.56711    
     985  0.80625    
     986  0.32701    
     987  0.40267    
     988  0.25847    
     989  0.29574    
     990  0.10704    
     991  0.13084    
     992  0.78773E-01
     993  0.42493E-01
     994  0.41731E-01
     995  0.26598E-01
     996  0.10494E-01
     997  0.12492E-01
     998  0.61830E-02
     999  0.28430E-02
    1000  0.36323E-02
    1001  0.19446E-02
    1002  0.10783E-02
    1003  0.10688E-02
    1004  0.27730E-02
    1005  0.72685E-02
    1006  0.30047E-01
    1007  0.12315    
    1008  0.24986    
    1009  0.59727    
    1010  0.67139    
    1011   1.3914    
    1012   2.8967    
    1013   940.05    
    1014   1061.9    

 *** ANSYS - ENGINEERING ANALYSIS SYSTEM  RELEASE Release 16.1     16.1     ***
 ANSYS Academic Teaching Advanced                  
 00203145  VERSION=LINUX x64     16:01:30  JUN 12, 2018 CP=     44.289

                                                                               


 
  ***** POST1 NODAL DEGREE OF FREEDOM LISTING *****                            
 
  LOAD STEP=     1  SUBSTEP=     1                                             
   TIME=    1.0000      LOAD CASE=   0                                         
 
    NODE      VOLT  
    1015   1151.8    
    1016   1216.4    
    1017   1263.7    
    1018   1299.5    
    1019   1324.0    
    1020   1336.9    
    1021   1346.8    
    1022   1366.3    
    1023   1407.8    
    1024   1483.1    
    1025   1579.2    
    1026   7.0318    
    1027   16.691    
    1028   36.652    
    1029   82.243    
    1030   211.42    
    1031   511.37    
    1032   1086.9    
    1033   54.366    
    1034   84.994    
    1035   84.618    
    1036   98.816    
    1037   139.84    
    1038   234.70    
    1039   278.69    
    1040   1712.7    
    1041   1536.3    
    1042   1360.9    
    1043   1152.7    
    1044   991.12    
    1045  0.37982    
    1046  0.64496    
    1047  0.97797    
    1048   1.3805    
    1049   1.7053    
    1050   3.2140    
    1051   6.5360    
    1052   13.085    
    1053   19.280    

 *** ANSYS - ENGINEERING ANALYSIS SYSTEM  RELEASE Release 16.1     16.1     ***
 ANSYS Academic Teaching Advanced                  
 00203145  VERSION=LINUX x64     16:01:30  JUN 12, 2018 CP=     44.289

                                                                               


 
  ***** POST1 NODAL DEGREE OF FREEDOM LISTING *****                            
 
  LOAD STEP=     1  SUBSTEP=     1                                             
   TIME=    1.0000      LOAD CASE=   0                                         
 
    NODE      VOLT  
    1054   40.022    
    1055   2.5070    
    1056   4.5257    
    1057   63.928    
    1058   104.53    
    1059   155.27    
    1060   93.266    
    1061   394.28    
    1062   951.74    
    1063  0.41095    
    1064   237.58    
    1065   166.37    
    1066  0.64952    
    1067   1.6323    
    1068   1.1769    
    1069   4.3866    
    1070   12.555    
    1071   572.72    
    1072   730.69    
    1073   861.36    
    1074   962.58    
    1075   1033.5    
    1076   1085.9    
    1077   1126.3    
    1078   1144.0    
    1079   1144.1    
    1080   1153.1    
    1081   1178.0    
    1082   1264.0    
    1083   1407.7    
    1084   35.004    
    1085   84.461    
    1086   217.00    
    1087   512.29    
    1088   118.21    
    1089   133.08    
    1090   151.68    
    1091   174.73    
    1092   399.15    

 *** ANSYS - ENGINEERING ANALYSIS SYSTEM  RELEASE Release 16.1     16.1     ***
 ANSYS Academic Teaching Advanced                  
 00203145  VERSION=LINUX x64     16:01:30  JUN 12, 2018 CP=     44.289

                                                                               


 
  ***** POST1 NODAL DEGREE OF FREEDOM LISTING *****                            
 
  LOAD STEP=     1  SUBSTEP=     1                                             
   TIME=    1.0000      LOAD CASE=   0                                         
 
    NODE      VOLT  
    1093   1222.5    
    1094   935.89    
    1095   661.12    
    1096   1.0367    
    1097   1.6231    
    1098   2.5821    
    1099   4.9157    
    1100   12.378    
    1101   31.880    
    1102   183.72    
    1103   291.59    
    1104   256.04    
    1105   366.57    
    1106   465.21    
    1107   293.93    
    1108   96.244    
    1109   2.5842    
    1110   614.00    
    1111   765.53    
    1112   858.00    
    1113   919.95    
    1114   971.19    
    1115   1020.9    
    1116   992.98    
    1117   972.18    
    1118   999.16    
    1119   969.70    
    1120   151.84    
    1121   185.04    
    1122   220.24    
    1123   506.85    
    1124   582.82    
    1125   179.77    
    1126   264.60    
    1127   311.01    
    1128   360.99    
    1129   466.93    
    1130   453.79    
    1131   632.27    

 *** ANSYS - ENGINEERING ANALYSIS SYSTEM  RELEASE Release 16.1     16.1     ***
 ANSYS Academic Teaching Advanced                  
 00203145  VERSION=LINUX x64     16:01:30  JUN 12, 2018 CP=     44.289

                                                                               


 
  ***** POST1 NODAL DEGREE OF FREEDOM LISTING *****                            
 
  LOAD STEP=     1  SUBSTEP=     1                                             
   TIME=    1.0000      LOAD CASE=   0                                         
 
    NODE      VOLT  
    1132   718.39    
    1133   799.29    
    1134   828.32    
    1135   889.41    
    1136   816.64    
    1137   760.24    
    1138   203.55    
    1139   255.04    
    1140   594.90    
    1141   370.83    
    1142   433.51    
    1143   576.80    
    1144   701.73    
    1145   727.25    
    1146   580.33    
    1147   28.873    
    1148   757.54    
    1149   31.236    
    1150   2.5751    
    1151  0.11239E-01
    1152   33.877    
    1153   31.106    
    1154   39.259    
    1155   68.632    
    1156   67.526    
    1157   25.968    
    1158   21.789    
    1159   24.086    
    1160   43.796    
    1161   52.688    
    1162   47.719    
    1163   55.019    
    1164   66.447    
    1165   65.392    
    1166   42.345    
    1167   30.467    
    1168   38.189    
    1169   35.182    
    1170   27.834    

 *** ANSYS - ENGINEERING ANALYSIS SYSTEM  RELEASE Release 16.1     16.1     ***
 ANSYS Academic Teaching Advanced                  
 00203145  VERSION=LINUX x64     16:01:30  JUN 12, 2018 CP=     44.290

                                                                               


 
  ***** POST1 NODAL DEGREE OF FREEDOM LISTING *****                            
 
  LOAD STEP=     1  SUBSTEP=     1                                             
   TIME=    1.0000      LOAD CASE=   0                                         
 
    NODE      VOLT  
    1171   0.0000    
    1172   12.370    
    1173   8.2403    
    1174   0.0000    
    1175   10.426    
    1176   18.015    
    1177   27.882    
    1178   25.130    
    1179   20.656    
    1180   25.880    
    1181   15.053    
    1182   17.993    
    1183   37.084    
    1184   50.960    
    1185   52.461    
    1186   61.241    
    1187   43.654    
    1188   20.819    
    1189   23.483    
    1190   67.880    
    1191   48.359    
    1192   41.308    
    1193   59.405    
    1194   53.341    
    1195   63.824    
    1196   43.971    
    1197   64.358    
    1198   63.344    
    1199   55.891    
    1200   49.963    
    1201   43.567    
    1202   14.802    
    1203   16.571    
    1204   11.350    
    1205   22.312    
    1206   62.345    
    1207   61.362    
    1208   5.5396    
    1209   11.645    

 *** ANSYS - ENGINEERING ANALYSIS SYSTEM  RELEASE Release 16.1     16.1     ***
 ANSYS Academic Teaching Advanced                  
 00203145  VERSION=LINUX x64     16:01:30  JUN 12, 2018 CP=     44.291

                                                                               


 
  ***** POST1 NODAL DEGREE OF FREEDOM LISTING *****                            
 
  LOAD STEP=     1  SUBSTEP=     1                                             
   TIME=    1.0000      LOAD CASE=   0                                         
 
    NODE      VOLT  
    1210   15.762    
    1211   0.0000    
    1212   4.9800    
    1213   7.2940    
    1214   0.0000    
    1215   22.554    
    1216   19.006    
    1217   39.461    
    1218   35.178    
    1219   0.0000    
    1220   102.70    
    1221   70.664    
    1222   0.0000    
    1223   137.16    
    1224   213.26    
    1225   317.29    
    1226   240.60    
    1227   221.06    
    1228   305.40    
    1229   135.53    
    1230   162.63    
    1231   395.24    
    1232   679.05    
    1233   599.46    
    1234   739.92    
    1235   481.27    
    1236   189.21    
    1237   215.50    
    1238   916.85    
    1239   739.10    
    1240   601.41    
    1241   989.13    
    1242   947.78    
    1243   853.57    
    1244   992.88    
    1245   437.75    
    1246   406.75    
    1247   1236.7    
    1248   1156.0    

 *** ANSYS - ENGINEERING ANALYSIS SYSTEM  RELEASE Release 16.1     16.1     ***
 ANSYS Academic Teaching Advanced                  
 00203145  VERSION=LINUX x64     16:01:30  JUN 12, 2018 CP=     44.291

                                                                               


 
  ***** POST1 NODAL DEGREE OF FREEDOM LISTING *****                            
 
  LOAD STEP=     1  SUBSTEP=     1                                             
   TIME=    1.0000      LOAD CASE=   0                                         
 
    NODE      VOLT  
    1249   1131.9    
    1250   1446.9    
    1251   1303.3    
    1252   1329.2    
    1253   1530.7    
    1254   1615.9    
    1255   1468.7    
    1256   1375.5    
    1257   1414.0    
    1258   1720.0    
    1259   1718.3    
    1260   1443.1    
    1261   1621.6    
    1262   1504.0    
    1263   1544.0    
    1264   1482.4    
    1265   1658.7    
    1266   1716.7    
    1267   1715.1    
    1268   1529.2    
    1269   1602.1    
    1270   1547.5    
    1271   1565.6    
    1272   1537.1    
    1273   1713.6    
    1274   1712.1    
    1275   1566.7    
    1276   1688.8    
    1277   1678.1    
    1278   1584.7    
    1279   1630.3    
    1280   1703.7    
    1281   1714.1    
    1282   1585.2    
    1283   1684.4    
    1284   1642.1    
    1285   1592.4    
    1286   1604.5    
    1287   1710.6    

 *** ANSYS - ENGINEERING ANALYSIS SYSTEM  RELEASE Release 16.1     16.1     ***
 ANSYS Academic Teaching Advanced                  
 00203145  VERSION=LINUX x64     16:01:30  JUN 12, 2018 CP=     44.291

                                                                               


 
  ***** POST1 NODAL DEGREE OF FREEDOM LISTING *****                            
 
  LOAD STEP=     1  SUBSTEP=     1                                             
   TIME=    1.0000      LOAD CASE=   0                                         
 
    NODE      VOLT  
    1288   1709.2    
    1289   1604.0    
    1290   1705.2    
    1291   1619.0    
    1292   1645.5    
    1293   1607.6    
    1294   1710.9    
    1295   1707.8    
    1296   1706.5    
    1297   1617.4    
    1298   1626.5    
    1299   1660.5    
    1300   1719.3    
    1301   1725.3    
    1302   1668.3    
    1303   1626.9    
    1304   1635.9    
    1305   1705.1    
    1306   1703.8    
    1307   1635.5    
    1308   1722.0    
    1309   1641.9    
    1310   1669.7    
    1311   1641.8    
    1312   1723.3    
    1313   1702.5    
    1314   1701.2    
    1315   1649.5    
    1316   1684.2    
    1317   1654.8    
    1318   1653.7    
    1319   1649.0    
    1320   1699.9    
    1321   1698.7    
    1322   1656.4    
    1323   1729.8    
    1324   1735.2    
    1325   1664.8    
    1326   1691.2    

 *** ANSYS - ENGINEERING ANALYSIS SYSTEM  RELEASE Release 16.1     16.1     ***
 ANSYS Academic Teaching Advanced                  
 00203145  VERSION=LINUX x64     16:01:30  JUN 12, 2018 CP=     44.291

                                                                               


 
  ***** POST1 NODAL DEGREE OF FREEDOM LISTING *****                            
 
  LOAD STEP=     1  SUBSTEP=     1                                             
   TIME=    1.0000      LOAD CASE=   0                                         
 
    NODE      VOLT  
    1327   1664.6    
    1328   1739.8    
    1329   1697.4    
    1330   1696.2    
    1331   1670.6    
    1332   1697.2    
    1333   1672.1    
    1334   1678.9    
    1335   1669.6    
    1336   1695.0    
    1337   1693.8    
    1338   1677.2    
    1339   1740.8    
    1340   1737.3    
    1341   1685.0    
    1342   1706.1    
    1343   1745.4    
    1344   1750.3    
    1345   1696.9    
    1346   1743.7    
    1347   1712.1    
    1348   1686.4    
    1349   1691.2    
    1350   1692.7    
    1351   1691.6    
    1352   1692.3    
    1353   1749.3    
    1354   1698.3    
    1355   1714.6    
    1356   1697.5    
    1357   1749.4    
    1358   1690.5    
    1359   1689.4    
    1360   1701.3    
    1361   1709.0    
    1362   1725.2    
    1363   1757.5    
    1364   1764.7    
    1365   1737.2    

 *** ANSYS - ENGINEERING ANALYSIS SYSTEM  RELEASE Release 16.1     16.1     ***
 ANSYS Academic Teaching Advanced                  
 00203145  VERSION=LINUX x64     16:01:30  JUN 12, 2018 CP=     44.292

                                                                               


 
  ***** POST1 NODAL DEGREE OF FREEDOM LISTING *****                            
 
  LOAD STEP=     1  SUBSTEP=     1                                             
   TIME=    1.0000      LOAD CASE=   0                                         
 
    NODE      VOLT  
    1366   1713.2    
    1367   1721.9    
    1368   1688.4    
    1369   1687.3    
    1370   1726.8    
    1371   1766.0    
    1372   1745.4    
    1373   1748.2    
    1374   1737.2    
    1375   1771.3    
    1376   1686.3    
    1377   1685.3    
    1378   1751.4    
    1379   1679.6    
    1380   1730.8    
    1381   1778.3    
    1382   1769.0    
    1383   1778.1    
    1384   1762.1    
    1385   1684.3    
    1386   1683.3    
    1387   1789.6    
    1388   1784.4    
    1389   1777.0    
    1390   1800.0    
    1391   1792.9    
    1392   1793.6    
    1393   1800.0    
    1394   1758.7    
    1395   1757.7    
    1396   1768.2    
    1397   1771.3    
    1398   1765.6    
    1399   1772.4    
    1400  0.10845E-02
    1401  0.43594E-03
    1402  0.44699E-03
    1403  0.39736E-03
    1404   0.0000    

 *** ANSYS - ENGINEERING ANALYSIS SYSTEM  RELEASE Release 16.1     16.1     ***
 ANSYS Academic Teaching Advanced                  
 00203145  VERSION=LINUX x64     16:01:30  JUN 12, 2018 CP=     44.293

                                                                               


 
  ***** POST1 NODAL DEGREE OF FREEDOM LISTING *****                            
 
  LOAD STEP=     1  SUBSTEP=     1                                             
   TIME=    1.0000      LOAD CASE=   0                                         
 
    NODE      VOLT  
    1405   0.0000    
    1406  0.48318E-03
    1407  0.17303E-02
    1408  0.18491E-02
    1409  0.14152E-02
    1410  0.62977E-03
    1411  0.88458E-03
    1412   0.0000    
    1413   0.0000    
    1414  0.10355E-02
    1415  0.24012E-02
    1416  0.32396E-02
    1417  0.14506E-02
    1418  0.16822E-02
    1419  0.12235E-02
    1420   0.0000    
    1421   0.0000    
    1422  0.17974E-02
    1423  0.54640E-02
    1424  0.49451E-02
    1425  0.46202E-02
    1426  0.22294E-02
    1427  0.30685E-02
    1428   0.0000    
    1429   0.0000    
    1430  0.36995E-02
    1431  0.71651E-02
    1432  0.12382E-01
    1433  0.56041E-02
    1434  0.61647E-02
    1435  0.46655E-02
    1436   0.0000    
    1437   0.0000    
    1438  0.62504E-02
    1439  0.20850E-01
    1440  0.18135E-01
    1441  0.19077E-01
    1442  0.87949E-02
    1443  0.11950E-01

 *** ANSYS - ENGINEERING ANALYSIS SYSTEM  RELEASE Release 16.1     16.1     ***
 ANSYS Academic Teaching Advanced                  
 00203145  VERSION=LINUX x64     16:01:30  JUN 12, 2018 CP=     44.293

                                                                               


 
  ***** POST1 NODAL DEGREE OF FREEDOM LISTING *****                            
 
  LOAD STEP=     1  SUBSTEP=     1                                             
   TIME=    1.0000      LOAD CASE=   0                                         
 
    NODE      VOLT  
    1444   0.0000    
    1445   0.0000    
    1446  0.15474E-01
    1447  0.31361E-01
    1448  0.46761E-01
    1449  0.21728E-01
    1450  0.21721E-01
    1451  0.19144E-01
    1452   0.0000    
    1453   0.0000    
    1454  0.20292E-01
    1455  0.75646E-01
    1456  0.72549E-01
    1457  0.60795E-01
    1458  0.26638E-01
    1459  0.34983E-01
    1460   0.0000    
    1461   0.0000    
    1462  0.42858E-01
    1463  0.10651    
    1464  0.11793    
    1465  0.55341E-01
    1466  0.60342E-01
    1467  0.49670E-01
    1468   0.0000    
    1469   0.0000    
    1470  0.66592E-01
    1471  0.18983    
    1472  0.17277    
    1473  0.27792    
    1474  0.12986    
    1475  0.13893    
    1476  0.11969    
    1477   0.0000    
    1478   0.0000    
    1479  0.14772    
    1480  0.44242    
    1481  0.41642    
    1482  0.35359    

 *** ANSYS - ENGINEERING ANALYSIS SYSTEM  RELEASE Release 16.1     16.1     ***
 ANSYS Academic Teaching Advanced                  
 00203145  VERSION=LINUX x64     16:01:30  JUN 12, 2018 CP=     44.293

                                                                               


 
  ***** POST1 NODAL DEGREE OF FREEDOM LISTING *****                            
 
  LOAD STEP=     1  SUBSTEP=     1                                             
   TIME=    1.0000      LOAD CASE=   0                                         
 
    NODE      VOLT  
    1483  0.16879    
    1484  0.18726    
    1485  0.15574    
    1486   0.0000    
    1487   0.0000    
    1488  0.21930    
    1489  0.55685    
    1490  0.50639    
    1491  0.67339    
    1492  0.30316    
    1493  0.36077    
    1494  0.25589    
    1495   0.0000    
    1496   0.0000    
    1497  0.43123    
    1498   1.1321    
    1499  0.93713    
    1500   1.2742    
    1501  0.56827    
    1502  0.63235    
    1503  0.49956    
    1504   0.0000    
    1505   0.0000    
    1506  0.69024    
    1507   2.1734    
    1508   1.8939    
    1509   1154.5    
    1510   1306.8    
    1511   1276.6    
    1512   1333.0    
    1513   1243.7    
    1514   1016.5    
    1515   1057.7    
    1516   1253.4    
    1517   1384.6    
    1518   1366.3    
    1519   1400.8    
    1520   1345.6    
    1521   1136.0    

 *** ANSYS - ENGINEERING ANALYSIS SYSTEM  RELEASE Release 16.1     16.1     ***
 ANSYS Academic Teaching Advanced                  
 00203145  VERSION=LINUX x64     16:01:30  JUN 12, 2018 CP=     44.294

                                                                               


 
  ***** POST1 NODAL DEGREE OF FREEDOM LISTING *****                            
 
  LOAD STEP=     1  SUBSTEP=     1                                             
   TIME=    1.0000      LOAD CASE=   0                                         
 
    NODE      VOLT  
    1522   1162.4    
    1523   1323.7    
    1524   1437.1    
    1525   1426.4    
    1526   1447.8    
    1527   1413.2    
    1528   1222.8    
    1529   1239.9    
    1530   1371.7    
    1531   1473.8    
    1532   1465.9    
    1533   1481.6    
    1534   1456.8    
    1535   1282.4    
    1536   1294.4    
    1537   1407.7    
    1538   1501.1    
    1539   1495.4    
    1540   1507.2    
    1541   1488.5    
    1542   1325.7    
    1543   1335.1    
    1544   1434.7    
    1545   1521.8    
    1546   1517.8    
    1547   1527.0    
    1548   1512.2    
    1549   1359.0    
    1550   1365.8    
    1551   1454.4    
    1552   1538.2    
    1553   1535.2    
    1554   1542.1    
    1555   1530.3    
    1556   1382.5    
    1557   1386.9    
    1558   1467.2    
    1559   1550.0    
    1560   1547.9    

 *** ANSYS - ENGINEERING ANALYSIS SYSTEM  RELEASE Release 16.1     16.1     ***
 ANSYS Academic Teaching Advanced                  
 00203145  VERSION=LINUX x64     16:01:30  JUN 12, 2018 CP=     44.295

                                                                               


 
  ***** POST1 NODAL DEGREE OF FREEDOM LISTING *****                            
 
  LOAD STEP=     1  SUBSTEP=     1                                             
   TIME=    1.0000      LOAD CASE=   0                                         
 
    NODE      VOLT  
    1561   1553.4    
    1562   1543.2    
    1563   1396.4    
    1564   1399.1    
    1565   1477.8    
    1566   1560.7    
    1567   1558.5    
    1568   1564.5    
    1569   1555.1    
    1570   1406.5    
    1571   1409.8    
    1572   1494.3    
    1573   1575.8    
    1574   1572.4    
    1575   1580.9    
    1576   1567.3    
    1577   1423.6    
    1578   1429.6    
    1579   1526.0    
    1580   1601.8    
    1581   1594.0    
    1582   1609.9    
    1583   1586.8    
    1584   1457.3    
    1585   1470.0    
    1586   1576.9    
    1587   1639.8    
    1588   1628.4    
    1589   1651.9    
    1590   1618.9    
    1591   1518.2    
    1592   1536.6    
    1593   1645.0    
    1594   1691.5    
    1595   1677.2    
    1596   1708.0    
    1597   1663.9    
    1598   1599.0    
    1599   1622.1    

 *** ANSYS - ENGINEERING ANALYSIS SYSTEM  RELEASE Release 16.1     16.1     ***
 ANSYS Academic Teaching Advanced                  
 00203145  VERSION=LINUX x64     16:01:30  JUN 12, 2018 CP=     44.295

                                                                               


 
  ***** POST1 NODAL DEGREE OF FREEDOM LISTING *****                            
 
  LOAD STEP=     1  SUBSTEP=     1                                             
   TIME=    1.0000      LOAD CASE=   0                                         
 
    NODE      VOLT  
    1600   8.7063    
    1601   8.2964    
    1602   10.733    
    1603   6.4551    
    1604   1105.9    
    1605   1064.8    
    1606   13.973    
    1607   8.8627    
    1608   7.0107    
    1609   21.656    
    1610   21.935    
    1611   27.129    
    1612   18.347    
    1613   1026.8    
    1614   991.39    
    1615   33.952    
    1616   21.060    
    1617   17.220    
    1618   49.445    
    1619   50.438    
    1620   63.458    
    1621   43.233    
    1622   958.46    
    1623   926.82    
    1624   78.133    
    1625   47.378    
    1626   39.356    
    1627   112.62    
    1628   114.57    
    1629   137.98    
    1630   97.380    
    1631   897.35    
    1632   869.79    
    1633   170.27    
    1634   107.93    
    1635   87.273    
    1636   266.25    
    1637   253.83    
    1638   301.42    

 *** ANSYS - ENGINEERING ANALYSIS SYSTEM  RELEASE Release 16.1     16.1     ***
 ANSYS Academic Teaching Advanced                  
 00203145  VERSION=LINUX x64     16:01:30  JUN 12, 2018 CP=     44.296

                                                                               


 
  ***** POST1 NODAL DEGREE OF FREEDOM LISTING *****                            
 
  LOAD STEP=     1  SUBSTEP=     1                                             
   TIME=    1.0000      LOAD CASE=   0                                         
 
    NODE      VOLT  
    1639   218.23    
    1640   844.02    
    1641   819.26    
    1642   365.93    
    1643   267.13    
    1644   218.93    
    1645   556.37    
    1646   505.89    
    1647   588.31    
    1648   441.12    
    1649   796.03    
    1650   773.86    
    1651   696.56    
    1652   594.20    
    1653   493.09    
    1654   979.24    
    1655   897.86    
    1656   1007.4    
    1657   797.62    
    1658   753.00    
    1659   733.20    
    1660   1150.2    
    1661   1083.9    
    1662   962.42    
    1663   30.320    
    1664   17.126    
    1665   14.792    
    1666   19.295    
    1667   0.0000    
    1668   0.0000    
    1669   13.250    
    1670   40.296    
    1671   45.877    
    1672   44.524    
    1673   23.830    
    1674   22.781    
    1675   24.473    
    1676   0.0000    
    1677   0.0000    

 *** ANSYS - ENGINEERING ANALYSIS SYSTEM  RELEASE Release 16.1     16.1     ***
 ANSYS Academic Teaching Advanced                  
 00203145  VERSION=LINUX x64     16:01:30  JUN 12, 2018 CP=     44.297

                                                                               


 
  ***** POST1 NODAL DEGREE OF FREEDOM LISTING *****                            
 
  LOAD STEP=     1  SUBSTEP=     1                                             
   TIME=    1.0000      LOAD CASE=   0                                         
 
    NODE      VOLT  
    1678   21.428    
    1679   62.502    
    1680   65.534    
    1681   46.478    
    1682   24.604    
    1683   24.873    
    1684   25.007    
    1685   0.0000    
    1686   0.0000    
    1687   23.727    
    1688   65.966    
    1689   67.012    
    1690   54.120    
    1691   29.343    
    1692   27.367    
    1693   31.825    
    1694   0.0000    
    1695   0.0000    
    1696   26.119    
    1697   75.410    
    1698   80.266    
    1699   81.392    
    1700   47.425    
    1701   40.060    
    1702   61.675    
    1703   0.0000    
    1704   0.0000    
    1705   35.253    
    1706   106.60    
    1707   121.10    
    1708   125.50    
    1709   63.860    
    1710   65.882    
    1711   65.123    
    1712   0.0000    
    1713   0.0000    
    1714   74.556    
    1715   181.67    
    1716   182.99    

 *** ANSYS - ENGINEERING ANALYSIS SYSTEM  RELEASE Release 16.1     16.1     ***
 ANSYS Academic Teaching Advanced                  
 00203145  VERSION=LINUX x64     16:01:30  JUN 12, 2018 CP=     44.297

                                                                               


 
  ***** POST1 NODAL DEGREE OF FREEDOM LISTING *****                            
 
  LOAD STEP=     1  SUBSTEP=     1                                             
   TIME=    1.0000      LOAD CASE=   0                                         
 
    NODE      VOLT  
    1717   147.02    
    1718   80.482    
    1719   73.519    
    1720   99.813    
    1721   0.0000    
    1722   0.0000    
    1723   66.560    
    1724   207.41    
    1725   224.39    
    1726   1764.2    
    1727   1781.2    
    1728   1784.4    
    1729   1780.2    
    1730   1800.0    
    1731   1800.0    
    1732   1789.1    
    1733   1748.6    
    1734   1738.7    
    1735   1745.7    
    1736   1766.0    
    1737   1774.1    
    1738   1756.3    
    1739   1800.0    
    1740   1800.0    
    1741   1712.5    
    1742   1661.7    
    1743   1722.9    
    1744   1734.4    
    1745   1711.0    
    1746   1800.0    
    1747   1800.0    
    1748   1745.2    
    1749   1612.9    
    1750   1584.1    
    1751   1561.1    
    1752   1668.5    
    1753   1684.1    
    1754   1657.4    
    1755   1800.0    

 *** ANSYS - ENGINEERING ANALYSIS SYSTEM  RELEASE Release 16.1     16.1     ***
 ANSYS Academic Teaching Advanced                  
 00203145  VERSION=LINUX x64     16:01:30  JUN 12, 2018 CP=     44.297

                                                                               


 
  ***** POST1 NODAL DEGREE OF FREEDOM LISTING *****                            
 
  LOAD STEP=     1  SUBSTEP=     1                                             
   TIME=    1.0000      LOAD CASE=   0                                         
 
    NODE      VOLT  
    1756   1800.0    
    1757   1695.4    
    1758   1475.3    
    1759   1439.5    
    1760   1425.9    
    1761   1588.7    
    1762   1603.7    
    1763   1576.2    
    1764   1800.0    
    1765   1800.0    
    1766   1628.4    
    1767   1300.2    
    1768   1261.1    
    1769   1318.0    
    1770   1527.3    
    1771   1540.1    
    1772   1520.3    
    1773   1800.0    
    1774   1800.0    
    1775   1555.6    
    1776   1155.3    
    1777   1130.7    
    1778  0.12994    
    1779  0.11010    
    1780  0.84988E-01
    1781  0.13738    
    1782   0.0000    
    1783   0.0000    
    1784  0.64286E-01
    1785  0.11678    
    1786  0.16041    
    1787  0.29395    
    1788  0.21866    
    1789  0.19144    
    1790  0.24613    
    1791   0.0000    
    1792   0.0000    
    1793  0.16600    
    1794  0.32104    

 *** ANSYS - ENGINEERING ANALYSIS SYSTEM  RELEASE Release 16.1     16.1     ***
 ANSYS Academic Teaching Advanced                  
 00203145  VERSION=LINUX x64     16:01:30  JUN 12, 2018 CP=     44.299

                                                                               


 
  ***** POST1 NODAL DEGREE OF FREEDOM LISTING *****                            
 
  LOAD STEP=     1  SUBSTEP=     1                                             
   TIME=    1.0000      LOAD CASE=   0                                         
 
    NODE      VOLT  
    1795  0.37333    
    1796  0.47274    
    1797  0.33654    
    1798  0.30482    
    1799  0.36995    
    1800   0.0000    
    1801   0.0000    
    1802  0.27469    
    1803  0.54325    
    1804  0.60282    
    1805  0.68990    
    1806  0.48030    
    1807  0.44159    
    1808  0.52141    
    1809   0.0000    
    1810   0.0000    
    1811  0.40480    
    1812  0.81174    
    1813  0.89052    
    1814  0.95645    
    1815  0.65385    
    1816  0.60885    
    1817  0.70582    
    1818   0.0000    
    1819   0.0000    
    1820  0.56350    
    1821   1.1437    
    1822   1.2311    
    1823   1.1255    
    1824  0.71684    
    1825  0.70836    
    1826  0.74538    
    1827   0.0000    
    1828   0.0000    
    1829  0.69734    
    1830   1.4146    
    1831   1.4679    
    1832   1.2573    
    1833  0.86417    

 *** ANSYS - ENGINEERING ANALYSIS SYSTEM  RELEASE Release 16.1     16.1     ***
 ANSYS Academic Teaching Advanced                  
 00203145  VERSION=LINUX x64     16:01:30  JUN 12, 2018 CP=     44.299

                                                                               


 
  ***** POST1 NODAL DEGREE OF FREEDOM LISTING *****                            
 
  LOAD STEP=     1  SUBSTEP=     1                                             
   TIME=    1.0000      LOAD CASE=   0                                         
 
    NODE      VOLT  
    1834  0.80265    
    1835  0.97914    
    1836   0.0000    
    1837   0.0000    
    1838   1.6101    
    1839   2.2191    
    1840   1.5013    
    1841   1.3912    
    1842   1.6213    
    1843   0.0000    
    1844   0.0000    
    1845   1.1754    
    1846   2.5885    
    1847   2.8815    
    1848   2.6430    
    1849   1.9698    
    1850   1.7755    
    1851   2.1630    
    1852   0.0000    
    1853   0.0000    
    1854   3.2243    
    1855   4.3014    
    1856   2.8683    
    1857   2.6821    
    1858   3.0531    
    1859   0.0000    
    1860   0.0000    
    1861   2.4411    
    1862   5.2332    
    1863   5.7918    
    1864   5.3410    
    1865   4.1768    
    1866   3.5171    
    1867   4.6633    
    1868   0.0000    
    1869   0.0000    
    1870   6.6405    
    1871   9.1466    
    1872   6.2308    

 *** ANSYS - ENGINEERING ANALYSIS SYSTEM  RELEASE Release 16.1     16.1     ***
 ANSYS Academic Teaching Advanced                  
 00203145  VERSION=LINUX x64     16:01:30  JUN 12, 2018 CP=     44.299

                                                                               


 
  ***** POST1 NODAL DEGREE OF FREEDOM LISTING *****                            
 
  LOAD STEP=     1  SUBSTEP=     1                                             
   TIME=    1.0000      LOAD CASE=   0                                         
 
    NODE      VOLT  
    1873   5.8280    
    1874   6.7310    
    1875   0.0000    
    1876   0.0000    
    1877   5.2169    
    1878   10.633    
    1879   12.016    
    1880   13.144    
    1881   8.6300    
    1882   7.7022    
    1883   10.478    
    1884   0.0000    
    1885   0.0000    
    1886   7.2153    
    1887   15.970    
    1888   17.777    
    1889   28.169    
    1890   19.236    
    1891   16.057    
    1892   34.401    
    1893   0.0000    
    1894   0.0000    
    1895   12.553    
    1896   31.475    
    1897   39.729    
    1898   1.2561    
    1899  0.62815    
    1900  0.59854    
    1901  0.66827    
    1902   0.0000    
    1903   0.0000    
    1904  0.59173    
    1905   1.8662    
    1906   1.9806    
    1907   1.6759    
    1908  0.75693    
    1909  0.75536    
    1910  0.73597    
    1911   0.0000    

 *** ANSYS - ENGINEERING ANALYSIS SYSTEM  RELEASE Release 16.1     16.1     ***
 ANSYS Academic Teaching Advanced                  
 00203145  VERSION=LINUX x64     16:01:30  JUN 12, 2018 CP=     44.299

                                                                               


 
  ***** POST1 NODAL DEGREE OF FREEDOM LISTING *****                            
 
  LOAD STEP=     1  SUBSTEP=     1                                             
   TIME=    1.0000      LOAD CASE=   0                                         
 
    NODE      VOLT  
    1912   0.0000    
    1913  0.71486    
    1914   2.7510    
    1915   2.8482    
    1916   50.660    
    1917   41.075    
    1918   46.665    
    1919   35.229    
    1920   51.907    
    1921   61.357    
    1922   53.398    
    1923   79.156    
    1924   63.275    
    1925   68.879    
    1926   57.607    
    1927   74.929    
    1928   96.857    
    1929   87.339    
    1930   113.18    
    1931   87.100    
    1932   95.015    
    1933   81.046    
    1934   102.74    
    1935   139.33    
    1936   128.90    
    1937   84.955    
    1938   79.978    
    1939   66.648    
    1940   94.204    
    1941   52.265    
    1942   86.095    
    1943   99.485    
    1944   71.281    
    1945   51.189    
    1946   49.424    
    1947   47.798    
    1948   82.760    
    1949   321.18    
    1950   327.79    

 *** ANSYS - ENGINEERING ANALYSIS SYSTEM  RELEASE Release 16.1     16.1     ***
 ANSYS Academic Teaching Advanced                  
 00203145  VERSION=LINUX x64     16:01:30  JUN 12, 2018 CP=     44.299

                                                                               


 
  ***** POST1 NODAL DEGREE OF FREEDOM LISTING *****                            
 
  LOAD STEP=     1  SUBSTEP=     1                                             
   TIME=    1.0000      LOAD CASE=   0                                         
 
    NODE      VOLT  
    1951   234.27    
    1952   429.62    
    1953   152.10    
    1954   326.48    
    1955   397.27    
    1956   1404.4    
    1957   1600.1    
    1958   1576.3    
    1959   1616.9    
    1960   1800.0    
    1961   1800.0    
    1962   1556.9    
    1963   1215.1    
    1964   1277.5    
    1965   1298.5    
    1966   1526.5    
    1967   1521.2    
    1968   1538.1    
    1969   1800.0    
    1970   1800.0    
    1971   1517.9    
    1972   1108.0    
    1973   1119.0    
    1974  0.40363E-02
    1975  0.32421E-02
    1976  0.23712E-02
    1977  0.38345E-02
    1978  0.63275E-02
    1979  0.13838E-01
    1980  0.10171E-01
    1981  0.81844E-02
    1982  0.10386E-01
    1983  0.21212E-01
    1984  0.57886E-01
    1985  0.43578E-01
    1986  0.34642E-01
    1987  0.45624E-01
    1988  0.87221E-01
    1989  0.15331    

 *** ANSYS - ENGINEERING ANALYSIS SYSTEM  RELEASE Release 16.1     16.1     ***
 ANSYS Academic Teaching Advanced                  
 00203145  VERSION=LINUX x64     16:01:30  JUN 12, 2018 CP=     44.301

                                                                               


 
  ***** POST1 NODAL DEGREE OF FREEDOM LISTING *****                            
 
  LOAD STEP=     1  SUBSTEP=     1                                             
   TIME=    1.0000      LOAD CASE=   0                                         
 
    NODE      VOLT  
    1990  0.13239    
    1991  0.93689E-01
    1992  0.16332    
    1993  0.22030    
    1994  0.48527    
    1995  0.46877    
    1996  0.31102    
    1997  0.63258    
    1998  0.67374    
    1999  0.35110    
    2000  0.23731    
    2001  0.38489    
    2002  0.10721    
    2003  0.55346    
    2004  0.45877    
    2005  0.31700    
    2006  0.78355    
    2007  0.65373    
    2008  0.47625    
    2009  0.78191    
    2010   1.1442    
    2011   1.6108    
    2012   1.3541    
    2013  0.95746    
    2014   1.6839    
    2015   2.4475    
    2016   2.6946    
    2017   2.4446    
    2018   1.5608    
    2019   3.3488    
    2020   4.2129    
    2021   1113.6    
    2022   1210.4    
    2023   1088.2    
    2024   976.03    
    2025   1035.8    
    2026   1204.9    
    2027   1292.9    
    2028   1184.6    

 *** ANSYS - ENGINEERING ANALYSIS SYSTEM  RELEASE Release 16.1     16.1     ***
 ANSYS Academic Teaching Advanced                  
 00203145  VERSION=LINUX x64     16:01:30  JUN 12, 2018 CP=     44.301

                                                                               


 
  ***** POST1 NODAL DEGREE OF FREEDOM LISTING *****                            
 
  LOAD STEP=     1  SUBSTEP=     1                                             
   TIME=    1.0000      LOAD CASE=   0                                         
 
    NODE      VOLT  
    2029   1087.4    
    2030   1132.2    
    2031   1269.6    
    2032   1349.6    
    2033   1255.3    
    2034   1170.2    
    2035   1202.3    
    2036   1316.5    
    2037   1391.0    
    2038   1305.7    
    2039   1229.7    
    2040   1253.1    
    2041   1351.9    
    2042   1422.1    
    2043   1343.5    
    2044   1273.7    
    2045   1291.6    
    2046   1377.6    
    2047   1445.5    
    2048   1371.9    
    2049   1306.8    
    2050   1319.1    
    2051   1393.7    
    2052   1461.4    
    2053   1390.2    
    2054   1328.2    
    2055   1334.3    
    2056   1404.0    
    2057   1472.3    
    2058   1401.7    
    2059   1339.3    
    2060   1344.0    
    2061   1418.3    
    2062   1484.6    
    2063   1413.6    
    2064   1350.5    
    2065   1360.0    
    2066   1446.6    
    2067   1507.4    

 *** ANSYS - ENGINEERING ANALYSIS SYSTEM  RELEASE Release 16.1     16.1     ***
 ANSYS Academic Teaching Advanced                  
 00203145  VERSION=LINUX x64     16:01:30  JUN 12, 2018 CP=     44.301

                                                                               


 
  ***** POST1 NODAL DEGREE OF FREEDOM LISTING *****                            
 
  LOAD STEP=     1  SUBSTEP=     1                                             
   TIME=    1.0000      LOAD CASE=   0                                         
 
    NODE      VOLT  
    2068   1437.4    
    2069   1373.5    
    2070   1394.4    
    2071   1500.4    
    2072   1548.8    
    2073   1484.3    
    2074   1423.7    
    2075   1461.4    
    2076   1577.2    
    2077   1609.5    
    2078   1556.5    
    2079   1505.5    
    2080   1552.9    
    2081   1677.3    
    2082   1688.6    
    2083   1648.5    
    2084   1726.0    
    2085   1607.7    
    2086   1672.8    
    2087   1708.0    
    2088   13.844    
    2089   11.093    
    2090   13.994    
    2091   8.6989    
    2092   13.421    
    2093   30.884    
    2094   25.500    
    2095   32.653    
    2096   19.900    
    2097   29.146    
    2098   71.939    
    2099   59.887    
    2100   74.819    
    2101   44.254    
    2102   67.855    
    2103   170.12    
    2104   134.25    
    2105   171.39    
    2106   104.77    

 *** ANSYS - ENGINEERING ANALYSIS SYSTEM  RELEASE Release 16.1     16.1     ***
 ANSYS Academic Teaching Advanced                  
 00203145  VERSION=LINUX x64     16:01:30  JUN 12, 2018 CP=     44.301

                                                                               


 
  ***** POST1 NODAL DEGREE OF FREEDOM LISTING *****                            
 
  LOAD STEP=     1  SUBSTEP=     1                                             
   TIME=    1.0000      LOAD CASE=   0                                         
 
    NODE      VOLT  
    2107   166.20    
    2108   400.26    
    2109   325.55    
    2110   383.58    
    2111   263.36    
    2112   403.73    
    2113   836.98    
    2114   712.39    
    2115   754.60    
    2116   653.54    
    2117   929.04    
    2118   57.330    
    2119   38.144    
    2120   51.619    
    2121   61.637    
    2122   76.614    
    2123   65.685    
    2124   45.952    
    2125   65.813    
    2126   84.041    
    2127   83.422    
    2128   71.806    
    2129   48.994    
    2130   69.079    
    2131   86.724    
    2132   93.556    
    2133   95.773    
    2134   63.932    
    2135   86.854    
    2136   105.74    
    2137   125.80    
    2138   165.74    
    2139   118.65    
    2140   140.51    
    2141   93.236    
    2142   157.51    
    2143   206.24    
    2144   197.12    
    2145   188.80    

 *** ANSYS - ENGINEERING ANALYSIS SYSTEM  RELEASE Release 16.1     16.1     ***
 ANSYS Academic Teaching Advanced                  
 00203145  VERSION=LINUX x64     16:01:30  JUN 12, 2018 CP=     44.301

                                                                               


 
  ***** POST1 NODAL DEGREE OF FREEDOM LISTING *****                            
 
  LOAD STEP=     1  SUBSTEP=     1                                             
   TIME=    1.0000      LOAD CASE=   0                                         
 
    NODE      VOLT  
    2146   183.54    
    2147   136.93    
    2148   231.95    
    2149   233.58    
    2150   196.16    
    2151   128.74    
    2152   187.94    
    2153   240.95    
    2154   262.29    
    2155   283.65    
    2156   197.60    
    2157   249.16    
    2158   300.82    
    2159   360.77    
    2160   1652.0    
    2161   1706.8    
    2162   1683.6    
    2163   1673.8    
    2164   1592.2    
    2165   1510.4    
    2166   1611.0    
    2167   1545.0    
    2168   1493.4    
    2169   1407.0    
    2170   1345.5    
    2171   1498.1    
    2172   1393.7    
    2173   1310.8    
    2174   1203.2    
    2175   1183.5    
    2176   1376.1    
    2177   1209.7    
    2178   1103.2    
    2179   1028.0    
    2180   1107.0    
    2181   1294.5    
    2182   1115.8    
    2183   969.28    
    2184   948.32    

 *** ANSYS - ENGINEERING ANALYSIS SYSTEM  RELEASE Release 16.1     16.1     ***
 ANSYS Academic Teaching Advanced                  
 00203145  VERSION=LINUX x64     16:01:30  JUN 12, 2018 CP=     44.302

                                                                               


 
  ***** POST1 NODAL DEGREE OF FREEDOM LISTING *****                            
 
  LOAD STEP=     1  SUBSTEP=     1                                             
   TIME=    1.0000      LOAD CASE=   0                                         
 
    NODE      VOLT  
    2185  0.60418E-01
    2186  0.84392E-01
    2187  0.70332E-01
    2188  0.49084E-01
    2189  0.42335E-01
    2190  0.26613    
    2191  0.21028    
    2192  0.21329    
    2193  0.19241    
    2194  0.31639    
    2195  0.48497    
    2196  0.38017    
    2197  0.42881    
    2198  0.44397    
    2199  0.57584    
[...]
   50059   390.72    
   50060   122.36    
   50061   125.17    
   50062   126.08    
   50063   142.00    
   50064   144.87    
   50065   146.57    
   50066   335.84    
   50067   326.44    
   50068   334.59    
   50069   358.17    
   50070   368.62    
   50071   371.93    
   50072   1373.5    
   50073   1388.6    
   50074   1383.3    
   50075   1170.2    
   50076   1162.9    

 *** ANSYS - ENGINEERING ANALYSIS SYSTEM  RELEASE Release 16.1     16.1     ***
 ANSYS Academic Teaching Advanced                  
 00203145  VERSION=LINUX x64     16:01:30  JUN 12, 2018 CP=     44.742

                                                                               


 
  ***** POST1 NODAL DEGREE OF FREEDOM LISTING *****                            
 
  LOAD STEP=     1  SUBSTEP=     1                                             
   TIME=    1.0000      LOAD CASE=   0                                         
 
    NODE      VOLT  
   50077   1146.9    
   50078   902.62    
   50079   890.09    
   50080   874.38    
   50081  0.78836    
   50082  0.78992    
   50083  0.81338    
   50084   3.5866    
   50085   3.5110    
   50086   3.6638    
   50087   7.4775    
   50088   7.3043    
   50089   7.6873    
   50090   17.235    
   50091   17.316    
   50092   18.156    
   50093   133.96    
   50094   133.29    
   50095   137.65    
   50096   206.22    
   50097   204.15    
   50098   211.60    
   50099   246.21    
   50100   235.02    
   50101   243.41    
   50102   115.48    
   50103   114.80    
   50104   122.43    
   50105  0.92482    
   50106  0.95611    
   50107  0.95651    
   50108   2.6091    
   50109   2.7536    
   50110   2.6925    
   50111   8.6915    
   50112   9.2457    
   50113   9.2991    
   50114   594.31    
   50115   584.74    

 *** ANSYS - ENGINEERING ANALYSIS SYSTEM  RELEASE Release 16.1     16.1     ***
 ANSYS Academic Teaching Advanced                  
 00203145  VERSION=LINUX x64     16:01:30  JUN 12, 2018 CP=     44.742

                                                                               


 
  ***** POST1 NODAL DEGREE OF FREEDOM LISTING *****                            
 
  LOAD STEP=     1  SUBSTEP=     1                                             
   TIME=    1.0000      LOAD CASE=   0                                         
 
    NODE      VOLT  
   50116   577.48    
   50117   741.38    
   50118   732.66    
   50119   725.38    
   50120   865.22    
   50121   858.54    
   50122   851.89    
   50123   952.61    
   50124   948.03    
   50125   940.92    
   50126   1014.0    
   50127   1010.6    
   50128   1003.1    
   50129   1062.4    
   50130   1059.6    
   50131   1052.2    
   50132   1095.0    
   50133   1094.0    
   50134   1086.2    
   50135   1094.1    
   50136   1094.7    
   50137   1084.8    
   50138   1091.9    
   50139   1091.5    
   50140   1081.0    
   50141   1107.3    
   50142   1106.4    
   50143   1096.0    
   50144   1147.8    
   50145   1142.0    
   50146   1131.7    
   50147   1306.9    
   50148   1294.4    
   50149   1293.5    
   50150   17.845    
   50151   18.982    
   50152   17.705    
   50153   44.572    
   50154   47.232    

 *** ANSYS - ENGINEERING ANALYSIS SYSTEM  RELEASE Release 16.1     16.1     ***
 ANSYS Academic Teaching Advanced                  
 00203145  VERSION=LINUX x64     16:01:30  JUN 12, 2018 CP=     44.743

                                                                               


 
  ***** POST1 NODAL DEGREE OF FREEDOM LISTING *****                            
 
  LOAD STEP=     1  SUBSTEP=     1                                             
   TIME=    1.0000      LOAD CASE=   0                                         
 
    NODE      VOLT  
   50155   44.271    
   50156   156.01    
   50157   154.42    
   50158   157.97    
   50159   181.71    
   50160   180.17    
   50161   184.36    
   50162   215.46    
   50163   210.45    
   50164   214.17    
   50165   284.17    
   50166   284.72    
   50167   291.98    
   50168   421.85    
   50169   419.13    
   50170   428.75    
   50171   702.80    
   50172   722.62    
   50173   698.62    
   50174   1.3215    
   50175   1.2752    
   50176   1.2987    
   50177   2.2959    
   50178   2.2196    
   50179   2.2920    
   50180   3.3653    
   50181   3.2409    
   50182   3.2558    
   50183   6.8623    
   50184   6.5094    
   50185   6.5100    
   50186   24.450    
   50187   23.115    
   50188   24.526    
   50189   158.49    
   50190   161.97    
   50191   162.55    
   50192   243.09    
   50193   250.70    

 *** ANSYS - ENGINEERING ANALYSIS SYSTEM  RELEASE Release 16.1     16.1     ***
 ANSYS Academic Teaching Advanced                  
 00203145  VERSION=LINUX x64     16:01:30  JUN 12, 2018 CP=     44.743

                                                                               


 
  ***** POST1 NODAL DEGREE OF FREEDOM LISTING *****                            
 
  LOAD STEP=     1  SUBSTEP=     1                                             
   TIME=    1.0000      LOAD CASE=   0                                         
 
    NODE      VOLT  
   50194   249.86    
   50195   369.04    
   50196   370.83    
   50197   385.55    
   50198   3.8337    
   50199   3.9857    
   50200   4.0365    
   50201   607.04    
   50202   591.02    
   50203   600.32    
   50204   752.87    
   50205   739.29    
   50206   747.93    
   50207   864.18    
   50208   852.84    
   50209   858.52    
   50210   939.26    
   50211   929.03    
   50212   932.92    
   50213   993.80    
   50214   983.86    
   50215   986.99    
   50216   1040.8    
   50217   1032.0    
   50218   1034.6    
   50219   1055.0    
   50220   1047.3    
   50221   1046.6    
   50222   1040.0    
   50223   1030.1    
   50224   1029.4    
   50225   1044.2    
   50226   1032.6    
   50227   1033.9    
   50228   1053.7    
   50229   1040.5    
   50230   1041.5    
   50231   1154.8    
   50232   1137.1    

 *** ANSYS - ENGINEERING ANALYSIS SYSTEM  RELEASE Release 16.1     16.1     ***
 ANSYS Academic Teaching Advanced                  
 00203145  VERSION=LINUX x64     16:01:30  JUN 12, 2018 CP=     44.743

                                                                               


 
  ***** POST1 NODAL DEGREE OF FREEDOM LISTING *****                            
 
  LOAD STEP=     1  SUBSTEP=     1                                             
   TIME=    1.0000      LOAD CASE=   0                                         
 
    NODE      VOLT  
   50233   1150.7    
   50234   151.41    
   50235   149.94    
   50236   153.59    
   50237   153.73    
   50238   155.10    
   50239   157.13    
   50240   183.85    
   50241   186.06    
   50242   188.01    
   50243   261.11    
   50244   258.40    
   50245   264.25    
   50246   329.61    
   50247   323.75    
   50248   330.30    
   50249   448.68    
   50250   440.32    
   50251   446.46    
   50252   499.17    
   50253   493.88    
   50254   478.48    
   50255   202.87    
   50256   204.37    
   50257   208.47    
   50258   332.04    
   50259   335.45    
   50260   343.92    
   50261   421.30    
   50262   436.89    
   50263   431.92    
   50264   676.16    
   50265   667.93    
   50266   666.88    
   50267   784.14    
   50268   778.38    
   50269   774.80    
   50270   859.08    
   50271   855.51    

 *** ANSYS - ENGINEERING ANALYSIS SYSTEM  RELEASE Release 16.1     16.1     ***
 ANSYS Academic Teaching Advanced                  
 00203145  VERSION=LINUX x64     16:01:30  JUN 12, 2018 CP=     44.744

                                                                               


 
  ***** POST1 NODAL DEGREE OF FREEDOM LISTING *****                            
 
  LOAD STEP=     1  SUBSTEP=     1                                             
   TIME=    1.0000      LOAD CASE=   0                                         
 
    NODE      VOLT  
   50272   850.76    
   50273   909.13    
   50274   906.04    
   50275   900.28    
   50276   966.27    
   50277   962.11    
   50278   957.60    
   50279   927.56    
   50280   930.03    
   50281   918.77    
   50282   922.85    
   50283   920.11    
   50284   909.55    
   50285   906.10    
   50286   914.57    
   50287   896.86    
   50288   177.20    
   50289   178.91    
   50290   180.64    
   50291   181.19    
   50292   179.10    
   50293   182.51    
   50294   219.91    
   50295   217.28    
   50296   221.75    
   50297   264.30    
   50298   258.66    
   50299   261.27    
   50300   309.44    
   50301   312.22    
   50302   316.05    
   50303   393.50    
   50304   392.33    
   50305   399.32    
   50306   520.08    
   50307   517.77    
   50308   525.86    
   50309   583.04    
   50310   576.99    

 *** ANSYS - ENGINEERING ANALYSIS SYSTEM  RELEASE Release 16.1     16.1     ***
 ANSYS Academic Teaching Advanced                  
 00203145  VERSION=LINUX x64     16:01:30  JUN 12, 2018 CP=     44.744

                                                                               


 
  ***** POST1 NODAL DEGREE OF FREEDOM LISTING *****                            
 
  LOAD STEP=     1  SUBSTEP=     1                                             
   TIME=    1.0000      LOAD CASE=   0                                         
 
    NODE      VOLT  
   50311   586.44    
   50312   748.60    
   50313   770.46    
   50314   755.98    
   50315   207.66    
   50316   212.00    
   50317   209.53    
   50318   574.49    
   50319   583.15    
   50320   594.07    
   50321   702.70    
   50322   694.20    
   50323   700.46    
   50324   793.58    
   50325   785.47    
   50326   790.51    
   50327   849.17    
   50328   841.13    
   50329   843.76    
   50330   897.98    
   50331   888.79    
   50332   892.52    
   50333   856.96    
   50334   845.62    
   50335   843.84    
   50336   211.39    
   50337   212.57    
   50338   215.35    
   50339   308.87    
   50340   304.88    
   50341   311.65    
   50342   364.42    
   50343   361.51    
   50344   368.30    
   50345   419.33    
   50346   411.81    
   50347   417.19    
   50348   546.96    
   50349   538.73    

 *** ANSYS - ENGINEERING ANALYSIS SYSTEM  RELEASE Release 16.1     16.1     ***
 ANSYS Academic Teaching Advanced                  
 00203145  VERSION=LINUX x64     16:01:30  JUN 12, 2018 CP=     44.744

                                                                               


 
  ***** POST1 NODAL DEGREE OF FREEDOM LISTING *****                            
 
  LOAD STEP=     1  SUBSTEP=     1                                             
   TIME=    1.0000      LOAD CASE=   0                                         
 
    NODE      VOLT  
   50350   545.25    
   50351   574.86    
   50352   579.47    
   50353   582.78    
   50354   650.33    
   50355   644.71    
   50356   642.80    
   50357   744.94    
   50358   738.87    
   50359   737.97    
   50360   818.54    
   50361   814.87    
   50362   809.15    
   50363   578.43    
   50364   595.86    
   50365   586.68    
   50366   706.98    
   50367   716.27    
   50368   722.27    
   50369   365.84    
   50370   370.50    
   50371   374.29    
   50372   489.27    
   50373   487.74    
   50374   496.05    
   50375   620.82    
   50376   620.28    
   50377   628.03    
   50378   671.70    
   50379   664.06    
   50380   670.28    
   50381   461.59    
   50382   468.42    
   50383   454.58    
   50384   451.10    
   50385   447.15    
   50386   458.11    
   50387   528.06    
   50388   517.70    

 *** ANSYS - ENGINEERING ANALYSIS SYSTEM  RELEASE Release 16.1     16.1     ***
 ANSYS Academic Teaching Advanced                  
 00203145  VERSION=LINUX x64     16:01:30  JUN 12, 2018 CP=     44.745

                                                                               


 
  ***** POST1 NODAL DEGREE OF FREEDOM LISTING *****                            
 
  LOAD STEP=     1  SUBSTEP=     1                                             
   TIME=    1.0000      LOAD CASE=   0                                         
 
    NODE      VOLT  
   50389   526.47    
   50390   1452.8    
   50391   1481.3    
   50392   1469.0    
   50393   1622.9    
   50394   1652.1    
   50395   1648.8    
   50396   1409.1    
   50397   1422.1    
   50398   1443.1    
   50399   1248.7    
   50400   1274.8    
   50401   1242.9    
   50402   1104.6    
   50403   1090.2    
   50404   1057.9    
   50405   759.72    
   50406   779.08    
   50407   740.62    
   50408   512.41    
   50409   537.76    
   50410   520.39    
   50411   11.568    
   50412   11.212    
   50413   13.575    
   50414   21.232    
   50415   19.298    
   50416   21.002    
   50417   41.628    
   50418   39.807    
   50419   39.523    
   50420  0.80430    
   50421  0.81735    
   50422  0.97780    
   50423   2.3128    
   50424   2.1305    
   50425   2.4092    
   50426   1.5595    
   50427   1.7229    

 *** ANSYS - ENGINEERING ANALYSIS SYSTEM  RELEASE Release 16.1     16.1     ***
 ANSYS Academic Teaching Advanced                  
 00203145  VERSION=LINUX x64     16:01:30  JUN 12, 2018 CP=     44.745

                                                                               


 
  ***** POST1 NODAL DEGREE OF FREEDOM LISTING *****                            
 
  LOAD STEP=     1  SUBSTEP=     1                                             
   TIME=    1.0000      LOAD CASE=   0                                         
 
    NODE      VOLT  
   50428   1.7195    
   50429  0.11057E-01
   50430  0.89680E-02
   50431  0.10913E-01
   50432  0.24526E-02
   50433  0.18906E-02
   50434  0.17115E-02
   50435  0.29704E-02
   50436  0.32433E-02
   50437  0.26650E-02
   50438  0.11835    
   50439  0.12134    
   50440  0.14456    
   50441  0.19341    
   50442  0.21800    
   50443  0.21087    
   50444  0.74315E-02
   50445  0.67457E-02
   50446  0.73405E-02
   50447   983.66    
   50448   993.90    
   50449   1018.1    
   50450   4.6536    
   50451   4.9135    
   50452   5.0165    
   50453   3.6719    
   50454   3.9098    
   50455   3.6685    
   50456   48.833    
   50457   51.354    
   50458   50.787    
   50459   29.827    
   50460   30.886    
   50461   27.997    
   50462  0.16701E-01
   50463  0.15831E-01
   50464  0.17420E-01
   50465  0.30475E-01
   50466  0.33355E-01

 *** ANSYS - ENGINEERING ANALYSIS SYSTEM  RELEASE Release 16.1     16.1     ***
 ANSYS Academic Teaching Advanced                  
 00203145  VERSION=LINUX x64     16:01:30  JUN 12, 2018 CP=     44.745

                                                                               


 
  ***** POST1 NODAL DEGREE OF FREEDOM LISTING *****                            
 
  LOAD STEP=     1  SUBSTEP=     1                                             
   TIME=    1.0000      LOAD CASE=   0                                         
 
    NODE      VOLT  
   50467  0.33469E-01
   50468   804.32    
   50469   839.57    
   50470   828.03    
   50471   617.32    
   50472   643.84    
   50473   616.53    
   50474   30.119    
   50475   28.644    
   50476   29.714    
   50477   68.886    
   50478   72.093    
   50479   73.099    
   50480   1023.2    
   50481   1043.2    
   50482   1023.9    
   50483   821.17    
   50484   824.26    
   50485   802.56    
   50486   464.99    
   50487   474.10    
   50488   451.95    
   50489   808.15    
   50490   813.83    
   50491   802.66    
   50492   716.39    
   50493   710.85    
   50494   703.65    
   50495   703.26    
   50496   681.72    
   50497   673.99    
   50498   791.55    
   50499   762.01    
   50500   787.76    
   50501   159.57    
   50502   168.54    
   50503   164.01    
   50504   118.32    
   50505   121.85    

 *** ANSYS - ENGINEERING ANALYSIS SYSTEM  RELEASE Release 16.1     16.1     ***
 ANSYS Academic Teaching Advanced                  
 00203145  VERSION=LINUX x64     16:01:30  JUN 12, 2018 CP=     44.746

                                                                               


 
  ***** POST1 NODAL DEGREE OF FREEDOM LISTING *****                            
 
  LOAD STEP=     1  SUBSTEP=     1                                             
   TIME=    1.0000      LOAD CASE=   0                                         
 
    NODE      VOLT  
   50506   117.76    
   50507   1774.8    
   50508   1779.9    
   50509   1778.8    
   50510   1745.2    
   50511   1752.0    
   50512   1746.7    
   50513  0.27009    
   50514  0.25275    
   50515  0.26192    
   50516  0.42371    
   50517  0.41531    
   50518  0.43746    
   50519   2.1992    
   50520   2.3304    
   50521   2.2012    
   50522   1.2404    
   50523   1.2590    
   50524   1.1771    
   50525   187.33    
   50526   188.52    
   50527   193.01    
   50528   204.57    
   50529   212.50    
   50530   210.63    
   50531   321.35    
   50532   318.08    
   50533   333.21    
   50534   426.72    
   50535   437.76    
   50536   443.64    
   50537   1.8261    
   50538   1.8406    
   50539   1.8940    
   50540   1.8848    
   50541   1.9644    
   50542   1.9177    
   50543   306.01    
   50544   324.62    

 *** ANSYS - ENGINEERING ANALYSIS SYSTEM  RELEASE Release 16.1     16.1     ***
 ANSYS Academic Teaching Advanced                  
 00203145  VERSION=LINUX x64     16:01:30  JUN 12, 2018 CP=     44.746

                                                                               


 
  ***** POST1 NODAL DEGREE OF FREEDOM LISTING *****                            
 
  LOAD STEP=     1  SUBSTEP=     1                                             
   TIME=    1.0000      LOAD CASE=   0                                         
 
    NODE      VOLT  
   50545   310.39    
   50546   178.11    
   50547   181.33    
   50548   169.88    
   50549   494.37    
   50550   500.39    
   50551   506.00    
   50552   483.99    
   50553   497.66    
   50554   489.05    
   50555   969.86    
   50556   972.79    
   50557   963.98    
   50558   905.50    
   50559   898.46    
   50560   895.09    
   50561   240.53    
   50562   240.52    
   50563   235.98    
   50564   354.26    
   50565   364.73    
   50566   361.30    
   50567   296.26    
   50568   301.50    
   50569   294.20    
   50570   624.24    
   50571   626.10    
   50572   634.99    
   50573   659.95    
   50574   668.41    
   50575   667.67    
   50576   569.25    
   50577   547.21    
   50578   560.32    
   50579   749.07    
   50580   735.41    
   50581   760.05    
   50582   1.2027    
   50583   1.2021    

 *** ANSYS - ENGINEERING ANALYSIS SYSTEM  RELEASE Release 16.1     16.1     ***
 ANSYS Academic Teaching Advanced                  
 00203145  VERSION=LINUX x64     16:01:30  JUN 12, 2018 CP=     44.746

                                                                               


 
  ***** POST1 NODAL DEGREE OF FREEDOM LISTING *****                            
 
  LOAD STEP=     1  SUBSTEP=     1                                             
   TIME=    1.0000      LOAD CASE=   0                                         
 
    NODE      VOLT  
   50584   1.2346    
   50585   1.3256    
   50586   1.3695    
   50587   1.3541    
   50588   1.7522    
   50589   1.7944    
   50590   1.8452    
   50591   1.7433    
   50592   1.8150    
   50593   1.7714    
   50594   777.97    
   50595   776.87    
   50596   770.95    
   50597   755.14    
   50598   746.32    
   50599   748.46    
   50600   59.652    
   50601   62.984    
   50602   63.452    
   50603   48.244    
   50604   51.173    
   50605   48.885    
   50606   118.82    
   50607   120.61    
   50608   122.76    
   50609   123.70    
   50610   127.17    
   50611   126.09    

 MAXIMUM ABSOLUTE VALUES
 NODE        163
 VALUE    1800.0    
