
 PRINT VOLT NODAL SOLUTION PER NODE

 *** ANSYS - ENGINEERING ANALYSIS SYSTEM  RELEASE Release 16.1     16.1     ***
 ANSYS Academic Teaching Advanced                  
 00203145  VERSION=LINUX x64     15:59:22  JUN 12, 2018 CP=     42.866

                                                                               


 
  ***** POST1 NODAL DEGREE OF FREEDOM LISTING *****                            
 
  LOAD STEP=     1  SUBSTEP=     1                                             
   TIME=    1.0000      LOAD CASE=   0                                         
 
    NODE      VOLT  
       1   1016.9    
       2   0.0000    
       3   845.15    
       4   695.63    
       5   510.82    
       6   354.60    
       7   160.79    
       8   0.0000    
       9   0.0000    
      10   0.0000    
      11   0.0000    
      12   0.0000    
      13   0.0000    
      14   0.0000    
      15   0.0000    
      16   0.0000    
      17   0.0000    
      18   0.0000    
      19   0.0000    
      20   0.0000    
      21   0.0000    
      22   0.0000    
      23   0.0000    
      24   0.0000    
      25   0.0000    
      26   0.0000    
      27   0.0000    
      28   0.0000    
      29   0.0000    
      30   0.0000    
      31   0.0000    
      32   0.0000    
      33   0.0000    
      34   0.0000    
      35   0.0000    
      36   0.0000    
      37   0.0000    
      38   1210.6    
      39   45.960    

 *** ANSYS - ENGINEERING ANALYSIS SYSTEM  RELEASE Release 16.1     16.1     ***
 ANSYS Academic Teaching Advanced                  
 00203145  VERSION=LINUX x64     15:59:22  JUN 12, 2018 CP=     42.866

                                                                               


 
  ***** POST1 NODAL DEGREE OF FREEDOM LISTING *****                            
 
  LOAD STEP=     1  SUBSTEP=     1                                             
   TIME=    1.0000      LOAD CASE=   0                                         
 
    NODE      VOLT  
      40   80.258    
      41   110.54    
      42   1188.7    
      43   1172.6    
      44   1159.5    
      45   1148.1    
      46   1128.8    
      47   1113.1    
      48   1088.5    
      49   1069.2    
      50   1048.3    
      51   1045.9    
      52   1029.1    
      53   1025.1    
      54   1025.0    
      55   1019.0    
      56   1019.8    
      57   1029.4    
      58   1021.6    
      59   1016.4    
      60   1018.3    
      61   1029.1    
      62   1020.2    
      63   1016.9    
      64   1018.8    
      65   1029.2    
      66   1019.0    
      67   1016.8    
      68   1019.9    
      69   1029.1    
      70   1018.5    
      71   223.99    
      72   733.10    
      73   469.98    
      74   539.96    
      75   856.87    
      76   562.64    
      77   848.88    
      78   351.04    

 *** ANSYS - ENGINEERING ANALYSIS SYSTEM  RELEASE Release 16.1     16.1     ***
 ANSYS Academic Teaching Advanced                  
 00203145  VERSION=LINUX x64     15:59:22  JUN 12, 2018 CP=     42.868

                                                                               


 
  ***** POST1 NODAL DEGREE OF FREEDOM LISTING *****                            
 
  LOAD STEP=     1  SUBSTEP=     1                                             
   TIME=    1.0000      LOAD CASE=   0                                         
 
    NODE      VOLT  
      79   344.56    
      80   133.17    
      81   152.00    
      82   408.16    
      83   394.94    
      84   391.23    
      85   391.48    
      86   390.84    
      87   391.07    
      88   390.79    
      89   391.18    
      90   391.34    
      91   394.21    
      92   408.69    
      93   465.25    
      94   224.82    
      95   224.03    
      96   188.99    
      97   189.29    
      98   178.99    
      99   179.14    
     100   177.41    
     101   177.38    
     102   177.08    
     103   177.11    
     104   177.04    
     105   177.00    
     106   177.01    
     107   177.05    
     108   177.03    
     109   177.03    
     110   177.11    
     111   177.24    
     112   177.33    
     113   177.58    
     114   177.37    
     115   178.26    
     116   180.71    
     117   183.37    

 *** ANSYS - ENGINEERING ANALYSIS SYSTEM  RELEASE Release 16.1     16.1     ***
 ANSYS Academic Teaching Advanced                  
 00203145  VERSION=LINUX x64     15:59:22  JUN 12, 2018 CP=     42.868

                                                                               


 
  ***** POST1 NODAL DEGREE OF FREEDOM LISTING *****                            
 
  LOAD STEP=     1  SUBSTEP=     1                                             
   TIME=    1.0000      LOAD CASE=   0                                         
 
    NODE      VOLT  
     118   189.26    
     119   197.62    
     120   702.52    
     121   686.25    
     122   674.49    
     123   666.90    
     124   661.87    
     125   659.56    
     126   659.40    
     127   660.32    
     128   660.70    
     129   658.60    
     130   657.95    
     131   659.50    
     132   660.21    
     133   658.36    
     134   658.06    
     135   659.62    
     136   660.19    
     137   658.34    
     138   658.81    
     139   660.42    
     140   663.38    
     141   661.39    
     142   678.03    
     143   678.28    
     144   734.01    
     145   732.06    
     146   598.09    
     147   429.79    
     148   509.72    
     149   421.95    
     150   396.32    
     151   392.11    
     152   391.30    
     153   391.12    
     154   391.19    
     155   391.08    
     156   391.46    

 *** ANSYS - ENGINEERING ANALYSIS SYSTEM  RELEASE Release 16.1     16.1     ***
 ANSYS Academic Teaching Advanced                  
 00203145  VERSION=LINUX x64     15:59:22  JUN 12, 2018 CP=     42.868

                                                                               


 
  ***** POST1 NODAL DEGREE OF FREEDOM LISTING *****                            
 
  LOAD STEP=     1  SUBSTEP=     1                                             
   TIME=    1.0000      LOAD CASE=   0                                         
 
    NODE      VOLT  
     157   391.78    
     158   392.06    
     159   400.11    
     160   422.05    
     161   287.01    
     162   677.99    
     163   1850.0    
     164   1846.1    
     165   1842.1    
     166   1838.1    
     167   1834.3    
     168   1830.6    
     169   1827.1    
     170   1823.6    
     171   1820.3    
     172   1817.0    
     173   1813.9    
     174   1810.9    
     175   1808.0    
     176   1805.1    
     177   1802.4    
     178   1799.7    
     179   1797.1    
     180   1794.6    
     181   1792.1    
     182   1789.7    
     183   1787.4    
     184   1785.2    
     185   1783.0    
     186   1780.9    
     187   1778.9    
     188   1776.9    
     189   1775.0    
     190   1773.1    
     191   1771.3    
     192   1769.5    
     193   1850.0    
     194   1850.0    
     195   1850.0    

 *** ANSYS - ENGINEERING ANALYSIS SYSTEM  RELEASE Release 16.1     16.1     ***
 ANSYS Academic Teaching Advanced                  
 00203145  VERSION=LINUX x64     15:59:22  JUN 12, 2018 CP=     42.870

                                                                               


 
  ***** POST1 NODAL DEGREE OF FREEDOM LISTING *****                            
 
  LOAD STEP=     1  SUBSTEP=     1                                             
   TIME=    1.0000      LOAD CASE=   0                                         
 
    NODE      VOLT  
     196   1850.0    
     197   1850.0    
     198   1850.0    
     199   1850.0    
     200   1850.0    
     201   1850.0    
     202   1850.0    
     203   1850.0    
     204   1850.0    
     205   1850.0    
     206   1850.0    
     207   1850.0    
     208   1850.0    
     209   1850.0    
     210   1850.0    
     211   1850.0    
     212   1850.0    
     213   1850.0    
     214   1850.0    
     215   1850.0    
     216   1850.0    
     217   1850.0    
     218   1850.0    
     219   1850.0    
     220   1850.0    
     221   1850.0    
     222   1850.0    
     223   1850.0    
     224   1850.0    
     225   1850.0    
     226   1850.0    
     227   1850.0    
     228   1850.0    
     229   1153.0    
     230   1320.6    
     231   1543.3    
     232   1142.2    
     233   1842.7    
     234   1144.1    

 *** ANSYS - ENGINEERING ANALYSIS SYSTEM  RELEASE Release 16.1     16.1     ***
 ANSYS Academic Teaching Advanced                  
 00203145  VERSION=LINUX x64     15:59:22  JUN 12, 2018 CP=     42.870

                                                                               


 
  ***** POST1 NODAL DEGREE OF FREEDOM LISTING *****                            
 
  LOAD STEP=     1  SUBSTEP=     1                                             
   TIME=    1.0000      LOAD CASE=   0                                         
 
    NODE      VOLT  
     235   1322.0    
     236   1830.6    
     237   1810.5    
     238   1215.9    
     239   1303.2    
     240   1517.9    
     241   1515.2    
     242   1840.9    
     243   1819.7    
     244   1836.1    
     245   1830.7    
     246   1840.7    
     247   1843.2    
     248   1080.8    
     249   1227.6    
     250   1079.2    
     251   1789.4    
     252   1783.2    
     253   1764.0    
     254   1760.5    
     255   1760.2    
     256   1740.5    
     257   1747.8    
     258   1749.2    
     259   1735.5    
     260   1728.2    
     261   1718.1    
     262   1713.5    
     263   1717.3    
     264   1697.1    
     265   1684.2    
     266   1693.0    
     267   1632.8    
     268   1658.6    
     269   1626.4    
     270   1539.3    
     271   1470.5    
     272   1268.7    
     273   1369.3    

 *** ANSYS - ENGINEERING ANALYSIS SYSTEM  RELEASE Release 16.1     16.1     ***
 ANSYS Academic Teaching Advanced                  
 00203145  VERSION=LINUX x64     15:59:22  JUN 12, 2018 CP=     42.871

                                                                               


 
  ***** POST1 NODAL DEGREE OF FREEDOM LISTING *****                            
 
  LOAD STEP=     1  SUBSTEP=     1                                             
   TIME=    1.0000      LOAD CASE=   0                                         
 
    NODE      VOLT  
     274   1342.1    
     275   1328.7    
     276   1341.5    
     277   1336.5    
     278   1324.2    
     279   1323.8    
     280   1804.5    
     281   1322.0    
     282   1334.5    
     283   1322.6    
     284   1335.3    
     285   1322.0    
     286   1322.4    
     287   1335.3    
     288   1322.0    
     289   1334.4    
     290   1330.0    
     291   1147.0    
     292   1830.2    
     293   1832.6    
     294   1294.1    
     295   0.0000    
     296   0.0000    
     297   3.1641    
     298   5.9850    
     299   9.7733    
     300   12.353    
     301   12.155    
     302   0.0000    
     303   0.0000    
     304   0.0000    
     305   0.0000    
     306   82.127    
     307   4.5985    
     308   8.6764    
     309   12.177    
     310   0.0000    
     311   79.988    
     312   78.294    

 *** ANSYS - ENGINEERING ANALYSIS SYSTEM  RELEASE Release 16.1     16.1     ***
 ANSYS Academic Teaching Advanced                  
 00203145  VERSION=LINUX x64     15:59:22  JUN 12, 2018 CP=     42.872

                                                                               


 
  ***** POST1 NODAL DEGREE OF FREEDOM LISTING *****                            
 
  LOAD STEP=     1  SUBSTEP=     1                                             
   TIME=    1.0000      LOAD CASE=   0                                         
 
    NODE      VOLT  
     313   76.831    
     314   75.461    
     315   74.159    
     316   72.911    
     317   71.706    
     318   0.0000    
     319   0.0000    
     320   0.0000    
     321   0.0000    
     322   0.0000    
     323   29.601    
     324   17.391    
     325   10.287    
     326   6.6524    
     327   19.685    
     328   10.199    
     329   29.774    
     330   52.123    
     331   46.999    
     332   57.653    
     333   21.189    
     334   33.699    
     335   9.8108    
     336   17.107    
     337   5.6848    
     338   4.6307    
     339   1.6634    
     340   1.6273    
     341   20.632    
     342   13.993    
     343   50.516    
     344   39.794    
     345   32.596    
     346   25.885    
     347   11.342    
     348   12.305    
     349   14.066    
     350   13.778    
     351   4.8195    

 *** ANSYS - ENGINEERING ANALYSIS SYSTEM  RELEASE Release 16.1     16.1     ***
 ANSYS Academic Teaching Advanced                  
 00203145  VERSION=LINUX x64     15:59:22  JUN 12, 2018 CP=     42.872

                                                                               


 
  ***** POST1 NODAL DEGREE OF FREEDOM LISTING *****                            
 
  LOAD STEP=     1  SUBSTEP=     1                                             
   TIME=    1.0000      LOAD CASE=   0                                         
 
    NODE      VOLT  
     352   4.3269    
     353   6.9119    
     354   10.624    
     355   8.2266    
     356   18.787    
     357   22.459    
     358   3.1954    
     359   19.869    
     360   38.268    
     361   13.104    
     362   0.0000    
     363   0.0000    
     364   0.0000    
     365   0.0000    
     366   0.0000    
     367   0.0000    
     368   0.0000    
     369   1850.0    
     370   1794.8    
     371   1742.9    
     372   1692.7    
     373   1645.6    
     374   1602.1    
     375   1561.1    
     376   1519.1    
     377   1479.6    
     378   1444.1    
     379   1410.4    
     380   1376.4    
     381   1344.1    
     382   1313.6    
     383   1284.6    
     384   1256.8    
     385   1230.3    
     386   1181.5    
     387   1850.0    
     388   1850.0    
     389   1850.0    
     390   1850.0    

 *** ANSYS - ENGINEERING ANALYSIS SYSTEM  RELEASE Release 16.1     16.1     ***
 ANSYS Academic Teaching Advanced                  
 00203145  VERSION=LINUX x64     15:59:22  JUN 12, 2018 CP=     42.874

                                                                               


 
  ***** POST1 NODAL DEGREE OF FREEDOM LISTING *****                            
 
  LOAD STEP=     1  SUBSTEP=     1                                             
   TIME=    1.0000      LOAD CASE=   0                                         
 
    NODE      VOLT  
     391   1850.0    
     392   1850.0    
     393   1850.0    
     394   1850.0    
     395   1850.0    
     396   1850.0    
     397   1850.0    
     398   1850.0    
     399   1850.0    
     400   1850.0    
     401   1850.0    
     402   1850.0    
     403   1850.0    
     404   1850.0    
     405   1850.0    
     406   0.0000    
     407   0.0000    
     408   0.0000    
     409   0.0000    
     410   0.0000    
     411   0.0000    
     412   0.0000    
     413   0.0000    
     414   0.0000    
     415   0.0000    
     416   0.0000    
     417   0.0000    
     418   0.0000    
     419   0.0000    
     420   0.0000    
     421   0.0000    
     422   0.0000    
     423   0.0000    
     424   0.0000    
     425   0.0000    
     426   0.0000    
     427   0.0000    
     428   0.0000    
     429   0.0000    

 *** ANSYS - ENGINEERING ANALYSIS SYSTEM  RELEASE Release 16.1     16.1     ***
 ANSYS Academic Teaching Advanced                  
 00203145  VERSION=LINUX x64     15:59:22  JUN 12, 2018 CP=     42.874

                                                                               


 
  ***** POST1 NODAL DEGREE OF FREEDOM LISTING *****                            
 
  LOAD STEP=     1  SUBSTEP=     1                                             
   TIME=    1.0000      LOAD CASE=   0                                         
 
    NODE      VOLT  
     430   0.0000    
     431   0.0000    
     432   0.0000    
     433   0.0000    
     434   0.0000    
     435   0.0000    
     436   0.0000    
     437   0.0000    
     438   0.0000    
     439   0.0000    
     440   0.0000    
     441   0.0000    
     442   0.0000    
     443   0.0000    
     444   0.0000    
     445   0.0000    
     446   0.0000    
     447   0.0000    
     448   0.0000    
     449   0.0000    
     450   0.0000    
     451   0.0000    
     452   0.0000    
     453   0.0000    
     454   0.0000    
     455   0.0000    
     456   0.0000    
     457   0.0000    
     458   0.0000    
     459   0.0000    
     460   0.0000    
     461   0.0000    
     462   0.0000    
     463   0.0000    
     464   0.0000    
     465   0.0000    
     466   0.0000    
     467   0.0000    
     468   0.0000    

 *** ANSYS - ENGINEERING ANALYSIS SYSTEM  RELEASE Release 16.1     16.1     ***
 ANSYS Academic Teaching Advanced                  
 00203145  VERSION=LINUX x64     15:59:22  JUN 12, 2018 CP=     42.874

                                                                               


 
  ***** POST1 NODAL DEGREE OF FREEDOM LISTING *****                            
 
  LOAD STEP=     1  SUBSTEP=     1                                             
   TIME=    1.0000      LOAD CASE=   0                                         
 
    NODE      VOLT  
     469   0.0000    
     470   0.0000    
     471   0.0000    
     472   0.0000    
     473   0.0000    
     474   0.0000    
     475   0.0000    
     476   0.0000    
     477   0.0000    
     478   0.0000    
     479   0.0000    
     480   125.97    
     481   56.116    
     482   783.61    
     483   1.8503    
     484   1.3299    
     485   670.82    
     486   665.23    
     487   334.26    
     488   272.88    
     489   961.88    
     490   511.62    
     491   243.76    
     492   1.9920    
     493   387.64    
     494   204.80    
     495   1.7060    
     496  0.34641    
     497   1810.5    
     498   139.74    
     499   745.27    
     500   783.12    
     501   390.55    
     502   950.82    
     503   61.116    
     504   38.703    
     505   728.58    
     506  0.24609E-01
     507   42.185    

 *** ANSYS - ENGINEERING ANALYSIS SYSTEM  RELEASE Release 16.1     16.1     ***
 ANSYS Academic Teaching Advanced                  
 00203145  VERSION=LINUX x64     15:59:22  JUN 12, 2018 CP=     42.876

                                                                               


 
  ***** POST1 NODAL DEGREE OF FREEDOM LISTING *****                            
 
  LOAD STEP=     1  SUBSTEP=     1                                             
   TIME=    1.0000      LOAD CASE=   0                                         
 
    NODE      VOLT  
     508   4.4723    
     509   883.89    
     510  0.11452E-01
     511  0.17922    
     512  0.55418E-02
     513  0.28172E-02
     514  0.22954E-01
     515  0.52680E-02
     516   2.6854    
     517   3.7031    
     518   1.2847    
     519   1.4989    
     520   47.231    
     521   31.144    
     522   20.591    
     523   16.679    
     524   561.03    
     525   642.19    
     526   1068.9    
     527   943.19    
     528   1339.8    
     529   1587.2    
     530   1398.9    
     531   1625.9    
     532   592.05    
     533   504.42    
     534   471.92    
     535   683.40    
     536   728.22    
     537   663.47    
     538   659.96    
     539   519.95    
     540   418.85    
     541   420.53    
     542   728.75    
     543   534.46    
     544   675.79    
     545   832.21    
     546   801.91    

 *** ANSYS - ENGINEERING ANALYSIS SYSTEM  RELEASE Release 16.1     16.1     ***
 ANSYS Academic Teaching Advanced                  
 00203145  VERSION=LINUX x64     15:59:22  JUN 12, 2018 CP=     42.876

                                                                               


 
  ***** POST1 NODAL DEGREE OF FREEDOM LISTING *****                            
 
  LOAD STEP=     1  SUBSTEP=     1                                             
   TIME=    1.0000      LOAD CASE=   0                                         
 
    NODE      VOLT  
     547   776.39    
     548   724.86    
     549   674.62    
     550   628.63    
     551   599.34    
     552   531.97    
     553   464.36    
     554   401.73    
     555   377.79    
     556   347.95    
     557   312.85    
     558   232.64    
     559   803.52    
     560   876.95    
     561   877.99    
     562   832.41    
     563   784.27    
     564   690.47    
     565   603.12    
     566   232.09    
     567   684.19    
     568   593.49    
     569   564.93    
     570   546.13    
     571   417.82    
     572   346.82    
     573   291.63    
     574   246.20    
     575   223.03    
     576   201.63    
     577   184.33    
     578   198.47    
     579   862.35    
     580   928.87    
     581   902.10    
     582   912.99    
     583   935.70    
     584   989.53    
     585   953.37    

 *** ANSYS - ENGINEERING ANALYSIS SYSTEM  RELEASE Release 16.1     16.1     ***
 ANSYS Academic Teaching Advanced                  
 00203145  VERSION=LINUX x64     15:59:22  JUN 12, 2018 CP=     42.876

                                                                               


 
  ***** POST1 NODAL DEGREE OF FREEDOM LISTING *****                            
 
  LOAD STEP=     1  SUBSTEP=     1                                             
   TIME=    1.0000      LOAD CASE=   0                                         
 
    NODE      VOLT  
     586   923.35    
     587   898.07    
     588   874.75    
     589   846.06    
     590   806.25    
     591   759.38    
     592   706.16    
     593   642.19    
     594   519.42    
     595   359.38    
     596   389.38    
     597   215.66    
     598   481.57    
     599   801.82    
     600   559.63    
     601   497.07    
     602   430.28    
     603   371.08    
     604   326.05    
     605   293.75    
     606   269.15    
     607   208.37    
     608   172.76    
     609   169.92    
     610   1117.0    
     611   1006.1    
     612   1006.5    
     613   1006.5    
     614   1036.4    
     615   1025.5    
     616   971.66    
     617   916.75    
     618   838.82    
     619   722.00    
     620   557.74    
     621   170.77    
     622   417.03    
     623   438.23    
     624   231.26    

 *** ANSYS - ENGINEERING ANALYSIS SYSTEM  RELEASE Release 16.1     16.1     ***
 ANSYS Academic Teaching Advanced                  
 00203145  VERSION=LINUX x64     15:59:22  JUN 12, 2018 CP=     42.878

                                                                               


 
  ***** POST1 NODAL DEGREE OF FREEDOM LISTING *****                            
 
  LOAD STEP=     1  SUBSTEP=     1                                             
   TIME=    1.0000      LOAD CASE=   0                                         
 
    NODE      VOLT  
     625   297.21    
     626   158.83    
     627   186.80    
     628   5.1938    
     629   3.7350    
     630   2.7930    
     631   2.0961    
     632   612.76    
     633   775.87    
     634   471.50    
     635   446.24    
     636   316.51    
     637   243.50    
     638   203.05    
     639   189.71    
     640   175.23    
     641   160.80    
     642   144.76    
     643   139.84    
     644   33.979    
     645   21.454    
     646   1260.6    
     647   1167.3    
     648   1116.9    
     649   1105.9    
     650   1100.0    
     651   1091.2    
     652   1088.3    
     653   1092.4    
     654   1098.8    
     655   1102.3    
     656   1094.6    
     657   1075.3    
     658   1051.6    
     659   1026.0    
     660   998.34    
     661   966.44    
     662   928.28    
     663   882.30    

 *** ANSYS - ENGINEERING ANALYSIS SYSTEM  RELEASE Release 16.1     16.1     ***
 ANSYS Academic Teaching Advanced                  
 00203145  VERSION=LINUX x64     15:59:22  JUN 12, 2018 CP=     42.878

                                                                               


 
  ***** POST1 NODAL DEGREE OF FREEDOM LISTING *****                            
 
  LOAD STEP=     1  SUBSTEP=     1                                             
   TIME=    1.0000      LOAD CASE=   0                                         
 
    NODE      VOLT  
     664   826.24    
     665   758.37    
     666   684.48    
     667   608.66    
     668   7.9430    
     669   13.253    
     670   1.5453    
     671   2.2538    
     672   3.4127    
     673   1.1501    
     674   146.83    
     675   97.830    
     676   87.818    
     677   310.12    
     678   209.30    
     679   236.35    
     680   152.17    
     681   53.723    
     682   20.934    
     683   7.5652    
     684   3.5937    
     685   2.1276    
     686   1.3131    
     687  0.89089    
     688   579.94    
     689   812.05    
     690   1116.4    
     691   1370.7    
     692   525.73    
     693   355.80    
     694   440.56    
     695   388.92    
     696   315.81    
     697   254.22    
     698   210.40    
     699   168.08    
     700   145.00    
     701   351.69    
     702   138.34    

 *** ANSYS - ENGINEERING ANALYSIS SYSTEM  RELEASE Release 16.1     16.1     ***
 ANSYS Academic Teaching Advanced                  
 00203145  VERSION=LINUX x64     15:59:22  JUN 12, 2018 CP=     42.880

                                                                               


 
  ***** POST1 NODAL DEGREE OF FREEDOM LISTING *****                            
 
  LOAD STEP=     1  SUBSTEP=     1                                             
   TIME=    1.0000      LOAD CASE=   0                                         
 
    NODE      VOLT  
     703   55.987    
     704   22.936    
     705   1483.7    
     706   1375.1    
     707   1243.1    
     708   1195.7    
     709   1178.6    
     710   1176.3    
     711   1170.5    
     712   1138.6    
     713   1090.8    
     714   1028.9    
     715   941.87    
     716   820.92    
     717   674.27    
     718   7.5171    
     719   1.4784    
     720   2.6143    
     721  0.87001    
     722   715.95    
     723   217.34    
     724   229.99    
     725   146.43    
     726   181.34    
     727   117.20    
     728   25.294    
     729   19.813    
     730   14.012    
     731   9.3466    
     732   6.2652    
     733   4.3751    
     734   3.1074    
     735   2.3114    
     736   1.6120    
     737   1.0796    
     738  0.87551    
     739  0.69282    
     740  0.51574    
     741   809.99    

 *** ANSYS - ENGINEERING ANALYSIS SYSTEM  RELEASE Release 16.1     16.1     ***
 ANSYS Academic Teaching Advanced                  
 00203145  VERSION=LINUX x64     15:59:22  JUN 12, 2018 CP=     42.880

                                                                               


 
  ***** POST1 NODAL DEGREE OF FREEDOM LISTING *****                            
 
  LOAD STEP=     1  SUBSTEP=     1                                             
   TIME=    1.0000      LOAD CASE=   0                                         
 
    NODE      VOLT  
     742   913.00    
     743   1037.5    
     744   1171.9    
     745   1299.0    
     746   1408.3    
     747   433.93    
     748   333.89    
     749   320.82    
     750   168.14    
     751   145.49    
     752   131.87    
     753   122.25    
     754   116.37    
     755   117.07    
     756   106.55    
     757   86.030    
     758   90.336    
     759   510.10    
     760   216.31    
     761   338.44    
     762   89.213    
     763   137.64    
     764   38.807    
     765   59.074    
     766   15.745    
     767   24.952    
     768   6.5212    
     769   9.9772    
     770   1591.9    
     771   1528.4    
     772   1473.9    
     773   1415.7    
     774   1363.9    
     775   1326.3    
     776   1302.1    
     777   1287.8    
     778   1278.5    
     779   1272.0    
     780   1268.5    

 *** ANSYS - ENGINEERING ANALYSIS SYSTEM  RELEASE Release 16.1     16.1     ***
 ANSYS Academic Teaching Advanced                  
 00203145  VERSION=LINUX x64     15:59:22  JUN 12, 2018 CP=     42.880

                                                                               


 
  ***** POST1 NODAL DEGREE OF FREEDOM LISTING *****                            
 
  LOAD STEP=     1  SUBSTEP=     1                                             
   TIME=    1.0000      LOAD CASE=   0                                         
 
    NODE      VOLT  
     781   1265.3    
     782   1260.0    
     783   1250.5    
     784   1236.0    
     785   1217.5    
     786   1196.0    
     787   1171.3    
     788   1143.3    
     789   1110.2    
     790   1071.3    
     791   1025.0    
     792   970.49    
     793   910.30    
     794   841.05    
     795   761.92    
     796   495.02    
     797   6.1226    
     798   8.2356    
     799   4.1304    
     800   2.6376    
     801  0.74679    
     802  0.91933    
     803   1.0729    
     804   1.1193    
     805  0.44793    
     806  0.57596    
     807   1030.1    
     808   126.97    
     809   179.72    
     810   140.19    
     811   132.34    
     812   85.636    
     813   3.3709    
     814   64.794    
     815   27.637    
     816   17.080    
     817   9.8943    
     818   4.7853    
     819   2.4036    

 *** ANSYS - ENGINEERING ANALYSIS SYSTEM  RELEASE Release 16.1     16.1     ***
 ANSYS Academic Teaching Advanced                  
 00203145  VERSION=LINUX x64     15:59:22  JUN 12, 2018 CP=     42.882

                                                                               


 
  ***** POST1 NODAL DEGREE OF FREEDOM LISTING *****                            
 
  LOAD STEP=     1  SUBSTEP=     1                                             
   TIME=    1.0000      LOAD CASE=   0                                         
 
    NODE      VOLT  
     820   1.6311    
     821   1.2054    
     822  0.82191    
     823  0.52362    
     824  0.26110    
     825  0.51764E-01
     826   980.14    
     827   1087.0    
     828   1292.1    
     829   1491.3    
     830   1680.9    
     831   337.21    
     832   257.00    
     833   237.76    
     834   154.73    
     835   184.47    
     836   117.92    
     837   92.076    
     838   85.594    
     839   71.060    
     840   65.250    
     841   811.79    
     842   334.08    
     843   135.56    
     844   56.443    
     845   24.501    
     846   4.4242    
     847   10.993    
     848   1760.3    
     849   1683.4    
     850   1571.3    
     851   1481.4    
     852   1421.6    
     853   1392.6    
     854   1378.9    
     855   1368.4    
     856   1349.9    
     857   1318.6    
     858   1276.4    

 *** ANSYS - ENGINEERING ANALYSIS SYSTEM  RELEASE Release 16.1     16.1     ***
 ANSYS Academic Teaching Advanced                  
 00203145  VERSION=LINUX x64     15:59:22  JUN 12, 2018 CP=     42.882

                                                                               


 
  ***** POST1 NODAL DEGREE OF FREEDOM LISTING *****                            
 
  LOAD STEP=     1  SUBSTEP=     1                                             
   TIME=    1.0000      LOAD CASE=   0                                         
 
    NODE      VOLT  
     859   1220.0    
     860   1141.4    
     861   1035.5    
     862   3.9097    
     863   2.0975    
     864  0.96987    
     865  0.52101    
     866  0.67682    
     867  0.33064    
     868  0.22028    
     869  0.19779    
     870  0.65704E-01
     871  0.15321E-01
     872  0.52446E-02
     873   1349.7    
     874   1329.3    
     875   1486.3    
     876   1405.3    
     877   419.73    
     878   255.68    
     879   70.128    
     880   102.25    
     881   72.482    
     882   107.02    
     883   125.82    
     884   73.735    
     885   89.451    
     886   45.188    
     887   58.903    
     888   1.7044    
     889   1.6417    
     890   1.3834    
     891   1.2552    
     892   37.752    
     893   23.203    
     894   15.657    
     895   12.289    
     896   10.410    
     897   8.4408    

 *** ANSYS - ENGINEERING ANALYSIS SYSTEM  RELEASE Release 16.1     16.1     ***
 ANSYS Academic Teaching Advanced                  
 00203145  VERSION=LINUX x64     15:59:22  JUN 12, 2018 CP=     42.882

                                                                               


 
  ***** POST1 NODAL DEGREE OF FREEDOM LISTING *****                            
 
  LOAD STEP=     1  SUBSTEP=     1                                             
   TIME=    1.0000      LOAD CASE=   0                                         
 
    NODE      VOLT  
     898   6.4489    
     899   4.6876    
     900   3.9941    
     901   3.0170    
     902   2.4628    
     903   2.0156    
     904   1.4408    
     905   1.2003    
     906   1.1209    
     907   1.0600    
     908  0.91045    
     909  0.77262    
     910  0.64859    
     911  0.53612    
     912  0.43850    
     913  0.34577    
     914  0.26034    
     915  0.17355    
     916  0.99261E-01
     917   1340.4    
     918   1374.8    
     919   1440.4    
     920   1499.0    
     921   1580.7    
     922   1631.0    
     923   1684.3    
     924   1731.4    
     925   1775.5    
     926   1810.3    
     927   1821.8    
     928   170.02    
     929   140.15    
     930   129.24    
     931   132.69    
     932   98.845    
     933   73.379    
     934   59.908    
     935   52.609    
     936   48.644    

 *** ANSYS - ENGINEERING ANALYSIS SYSTEM  RELEASE Release 16.1     16.1     ***
 ANSYS Academic Teaching Advanced                  
 00203145  VERSION=LINUX x64     15:59:22  JUN 12, 2018 CP=     42.884

                                                                               


 
  ***** POST1 NODAL DEGREE OF FREEDOM LISTING *****                            
 
  LOAD STEP=     1  SUBSTEP=     1                                             
   TIME=    1.0000      LOAD CASE=   0                                         
 
    NODE      VOLT  
     937   47.145    
     938   47.123    
     939   43.016    
     940   35.225    
     941   27.219    
     942   895.60    
     943   1144.6    
     944   486.05    
     945   671.75    
     946   229.09    
     947   329.34    
     948   95.430    
     949   141.87    
     950   41.749    
     951   63.895    
     952   18.285    
     953   27.498    
     954   6.9794    
     955   11.413    
     956   1712.3    
     957   1671.8    
     958   1636.9    
     959   1605.4    
     960   1579.3    
     961   1557.7    
     962   1541.7    
     963   1531.0    
     964   1522.2    
     965   1515.8    
     966   1510.8    
     967   1505.2    
     968   1498.8    
     969   1490.7    
     970   1480.5    
     971   1468.5    
     972   1454.4    
     973   1438.6    
     974   1420.1    
     975   1398.8    

 *** ANSYS - ENGINEERING ANALYSIS SYSTEM  RELEASE Release 16.1     16.1     ***
 ANSYS Academic Teaching Advanced                  
 00203145  VERSION=LINUX x64     15:59:22  JUN 12, 2018 CP=     42.884

                                                                               


 
  ***** POST1 NODAL DEGREE OF FREEDOM LISTING *****                            
 
  LOAD STEP=     1  SUBSTEP=     1                                             
   TIME=    1.0000      LOAD CASE=   0                                         
 
    NODE      VOLT  
     976   1374.3    
     977   1345.1    
     978   1310.6    
     979   1263.0    
     980   1220.3    
     981   1145.6    
     982   1.1504    
     983   1.4637    
     984  0.58287    
     985  0.82864    
     986  0.33609    
     987  0.41385    
     988  0.26565    
     989  0.30395    
     990  0.11001    
     991  0.13448    
     992  0.80961E-01
     993  0.43673E-01
     994  0.42890E-01
     995  0.27337E-01
     996  0.10785E-01
     997  0.12839E-01
     998  0.63548E-02
     999  0.29220E-02
    1000  0.37332E-02
    1001  0.19986E-02
    1002  0.11082E-02
    1003  0.10985E-02
    1004  0.28500E-02
    1005  0.74704E-02
    1006  0.30881E-01
    1007  0.12657    
    1008  0.25680    
    1009  0.61387    
    1010  0.69004    
    1011   1.4300    
    1012   2.9772    
    1013   966.16    
    1014   1091.4    

 *** ANSYS - ENGINEERING ANALYSIS SYSTEM  RELEASE Release 16.1     16.1     ***
 ANSYS Academic Teaching Advanced                  
 00203145  VERSION=LINUX x64     15:59:22  JUN 12, 2018 CP=     42.886

                                                                               


 
  ***** POST1 NODAL DEGREE OF FREEDOM LISTING *****                            
 
  LOAD STEP=     1  SUBSTEP=     1                                             
   TIME=    1.0000      LOAD CASE=   0                                         
 
    NODE      VOLT  
    1015   1183.8    
    1016   1250.2    
    1017   1298.8    
    1018   1335.6    
    1019   1360.8    
    1020   1374.0    
    1021   1384.3    
    1022   1404.2    
    1023   1446.9    
    1024   1524.3    
    1025   1623.1    
    1026   7.2271    
    1027   17.154    
    1028   37.670    
    1029   84.527    
    1030   217.29    
    1031   525.58    
    1032   1117.1    
    1033   55.876    
    1034   87.355    
    1035   86.969    
    1036   101.56    
    1037   143.73    
    1038   241.22    
    1039   286.43    
    1040   1760.3    
    1041   1578.9    
    1042   1398.7    
    1043   1184.8    
    1044   1018.6    
    1045  0.39038    
    1046  0.66288    
    1047   1.0051    
    1048   1.4189    
    1049   1.7527    
    1050   3.3033    
    1051   6.7176    
    1052   13.449    
    1053   19.816    

 *** ANSYS - ENGINEERING ANALYSIS SYSTEM  RELEASE Release 16.1     16.1     ***
 ANSYS Academic Teaching Advanced                  
 00203145  VERSION=LINUX x64     15:59:22  JUN 12, 2018 CP=     42.886

                                                                               


 
  ***** POST1 NODAL DEGREE OF FREEDOM LISTING *****                            
 
  LOAD STEP=     1  SUBSTEP=     1                                             
   TIME=    1.0000      LOAD CASE=   0                                         
 
    NODE      VOLT  
    1054   41.134    
    1055   2.5767    
    1056   4.6514    
    1057   65.704    
    1058   107.43    
    1059   159.58    
    1060   95.856    
    1061   405.23    
    1062   978.17    
    1063  0.42237    
    1064   244.18    
    1065   171.00    
    1066  0.66756    
    1067   1.6776    
    1068   1.2096    
    1069   4.5085    
    1070   12.904    
    1071   588.63    
    1072   750.99    
    1073   885.28    
    1074   989.32    
    1075   1062.3    
    1076   1116.1    
    1077   1157.6    
    1078   1175.7    
    1079   1175.9    
    1080   1185.1    
    1081   1210.7    
    1082   1299.1    
    1083   1446.8    
    1084   35.976    
    1085   86.807    
    1086   223.02    
    1087   526.52    
    1088   121.49    
    1089   136.77    
    1090   155.90    
    1091   179.58    
    1092   410.23    

 *** ANSYS - ENGINEERING ANALYSIS SYSTEM  RELEASE Release 16.1     16.1     ***
 ANSYS Academic Teaching Advanced                  
 00203145  VERSION=LINUX x64     15:59:22  JUN 12, 2018 CP=     42.886

                                                                               


 
  ***** POST1 NODAL DEGREE OF FREEDOM LISTING *****                            
 
  LOAD STEP=     1  SUBSTEP=     1                                             
   TIME=    1.0000      LOAD CASE=   0                                         
 
    NODE      VOLT  
    1093   1256.5    
    1094   961.89    
    1095   679.49    
    1096   1.0655    
    1097   1.6682    
    1098   2.6538    
    1099   5.0522    
    1100   12.722    
    1101   32.766    
    1102   188.83    
    1103   299.69    
    1104   263.15    
    1105   376.75    
    1106   478.14    
    1107   302.09    
    1108   98.918    
    1109   2.6560    
    1110   631.05    
    1111   786.79    
    1112   881.83    
    1113   945.50    
    1114   998.17    
    1115   1049.3    
    1116   1020.6    
    1117   999.19    
    1118   1026.9    
    1119   996.63    
    1120   156.05    
    1121   190.18    
    1122   226.35    
    1123   520.93    
    1124   599.01    
    1125   184.77    
    1126   271.95    
    1127   319.65    
    1128   371.02    
    1129   479.90    
    1130   466.40    
    1131   649.84    

 *** ANSYS - ENGINEERING ANALYSIS SYSTEM  RELEASE Release 16.1     16.1     ***
 ANSYS Academic Teaching Advanced                  
 00203145  VERSION=LINUX x64     15:59:22  JUN 12, 2018 CP=     42.888

                                                                               


 
  ***** POST1 NODAL DEGREE OF FREEDOM LISTING *****                            
 
  LOAD STEP=     1  SUBSTEP=     1                                             
   TIME=    1.0000      LOAD CASE=   0                                         
 
    NODE      VOLT  
    1132   738.34    
    1133   821.50    
    1134   851.33    
    1135   914.11    
    1136   839.32    
    1137   781.36    
    1138   209.21    
    1139   262.12    
    1140   611.43    
    1141   381.14    
    1142   445.55    
    1143   592.82    
    1144   721.23    
    1145   747.45    
    1146   596.45    
    1147   29.675    
    1148   778.58    
    1149   32.104    
    1150   2.6466    
    1151  0.11551E-01
    1152   34.818    
    1153   31.970    
    1154   40.349    
    1155   70.538    
    1156   69.402    
    1157   26.690    
    1158   22.394    
    1159   24.755    
    1160   45.013    
    1161   54.152    
    1162   49.045    
    1163   56.547    
    1164   68.293    
    1165   67.209    
    1166   43.521    
    1167   31.314    
    1168   39.250    
    1169   36.160    
    1170   28.607    

 *** ANSYS - ENGINEERING ANALYSIS SYSTEM  RELEASE Release 16.1     16.1     ***
 ANSYS Academic Teaching Advanced                  
 00203145  VERSION=LINUX x64     15:59:22  JUN 12, 2018 CP=     42.888

                                                                               


 
  ***** POST1 NODAL DEGREE OF FREEDOM LISTING *****                            
 
  LOAD STEP=     1  SUBSTEP=     1                                             
   TIME=    1.0000      LOAD CASE=   0                                         
 
    NODE      VOLT  
    1171   0.0000    
    1172   12.714    
    1173   8.4692    
    1174   0.0000    
    1175   10.716    
    1176   18.515    
    1177   28.656    
    1178   25.828    
    1179   21.230    
    1180   26.599    
    1181   15.471    
    1182   18.493    
    1183   38.114    
    1184   52.375    
    1185   53.919    
    1186   62.942    
    1187   44.867    
    1188   21.398    
    1189   24.135    
    1190   69.766    
    1191   49.703    
    1192   42.455    
    1193   61.055    
    1194   54.823    
    1195   65.597    
    1196   45.192    
    1197   66.146    
    1198   65.103    
    1199   57.443    
    1200   51.351    
    1201   44.777    
    1202   15.213    
    1203   17.032    
    1204   11.665    
    1205   22.931    
    1206   64.077    
    1207   63.067    
    1208   5.6935    
    1209   11.969    

 *** ANSYS - ENGINEERING ANALYSIS SYSTEM  RELEASE Release 16.1     16.1     ***
 ANSYS Academic Teaching Advanced                  
 00203145  VERSION=LINUX x64     15:59:22  JUN 12, 2018 CP=     42.888

                                                                               


 
  ***** POST1 NODAL DEGREE OF FREEDOM LISTING *****                            
 
  LOAD STEP=     1  SUBSTEP=     1                                             
   TIME=    1.0000      LOAD CASE=   0                                         
 
    NODE      VOLT  
    1210   16.200    
    1211   0.0000    
    1212   5.1183    
    1213   7.4966    
    1214   0.0000    
    1215   23.181    
    1216   19.534    
    1217   40.557    
    1218   36.155    
    1219   0.0000    
    1220   105.55    
    1221   72.627    
    1222   0.0000    
    1223   140.97    
    1224   219.19    
    1225   326.11    
    1226   247.29    
    1227   227.21    
    1228   313.89    
    1229   139.29    
    1230   167.15    
    1231   406.22    
    1232   697.92    
    1233   616.11    
    1234   760.48    
    1235   494.64    
    1236   194.47    
    1237   221.49    
    1238   942.32    
    1239   759.63    
    1240   618.12    
    1241   1016.6    
    1242   974.11    
    1243   877.28    
    1244   1020.5    
    1245   449.91    
    1246   418.05    
    1247   1271.1    
    1248   1188.1    

 *** ANSYS - ENGINEERING ANALYSIS SYSTEM  RELEASE Release 16.1     16.1     ***
 ANSYS Academic Teaching Advanced                  
 00203145  VERSION=LINUX x64     15:59:22  JUN 12, 2018 CP=     42.890

                                                                               


 
  ***** POST1 NODAL DEGREE OF FREEDOM LISTING *****                            
 
  LOAD STEP=     1  SUBSTEP=     1                                             
   TIME=    1.0000      LOAD CASE=   0                                         
 
    NODE      VOLT  
    1249   1163.3    
    1250   1487.1    
    1251   1339.5    
    1252   1366.1    
    1253   1573.2    
    1254   1660.8    
    1255   1509.5    
    1256   1413.7    
    1257   1453.3    
    1258   1767.7    
    1259   1766.0    
    1260   1483.2    
    1261   1666.7    
    1262   1545.8    
    1263   1586.9    
    1264   1523.6    
    1265   1704.7    
    1266   1764.4    
    1267   1762.8    
    1268   1571.7    
    1269   1646.7    
    1270   1590.5    
    1271   1609.1    
    1272   1579.8    
    1273   1761.2    
    1274   1759.7    
    1275   1610.3    
    1276   1735.7    
    1277   1724.7    
    1278   1628.7    
    1279   1675.6    
    1280   1751.0    
    1281   1761.7    
    1282   1629.2    
    1283   1731.2    
    1284   1687.7    
    1285   1636.7    
    1286   1649.1    
    1287   1758.2    

 *** ANSYS - ENGINEERING ANALYSIS SYSTEM  RELEASE Release 16.1     16.1     ***
 ANSYS Academic Teaching Advanced                  
 00203145  VERSION=LINUX x64     15:59:22  JUN 12, 2018 CP=     42.890

                                                                               


 
  ***** POST1 NODAL DEGREE OF FREEDOM LISTING *****                            
 
  LOAD STEP=     1  SUBSTEP=     1                                             
   TIME=    1.0000      LOAD CASE=   0                                         
 
    NODE      VOLT  
    1288   1756.7    
    1289   1648.6    
    1290   1752.6    
    1291   1663.9    
    1292   1691.2    
    1293   1652.2    
    1294   1758.4    
    1295   1755.3    
    1296   1753.9    
    1297   1662.3    
    1298   1671.7    
    1299   1706.7    
    1300   1767.0    
    1301   1773.3    
    1302   1714.6    
    1303   1672.1    
    1304   1681.3    
    1305   1752.5    
    1306   1751.1    
    1307   1680.9    
    1308   1769.8    
    1309   1687.5    
    1310   1716.1    
    1311   1687.4    
    1312   1771.2    
    1313   1749.8    
    1314   1748.5    
    1315   1695.3    
    1316   1731.0    
    1317   1700.7    
    1318   1699.6    
    1319   1694.8    
    1320   1747.2    
    1321   1745.9    
    1322   1702.4    
    1323   1777.9    
    1324   1783.4    
    1325   1711.1    
    1326   1738.2    

 *** ANSYS - ENGINEERING ANALYSIS SYSTEM  RELEASE Release 16.1     16.1     ***
 ANSYS Academic Teaching Advanced                  
 00203145  VERSION=LINUX x64     15:59:22  JUN 12, 2018 CP=     42.892

                                                                               


 
  ***** POST1 NODAL DEGREE OF FREEDOM LISTING *****                            
 
  LOAD STEP=     1  SUBSTEP=     1                                             
   TIME=    1.0000      LOAD CASE=   0                                         
 
    NODE      VOLT  
    1327   1710.9    
    1328   1788.1    
    1329   1744.6    
    1330   1743.3    
    1331   1717.0    
    1332   1744.3    
    1333   1718.5    
    1334   1725.6    
    1335   1716.0    
    1336   1742.1    
    1337   1740.9    
    1338   1723.8    
    1339   1789.2    
    1340   1785.6    
    1341   1731.8    
    1342   1753.5    
    1343   1793.9    
    1344   1798.9    
    1345   1744.1    
    1346   1792.2    
    1347   1759.7    
    1348   1733.3    
    1349   1738.1    
    1350   1739.7    
    1351   1738.5    
    1352   1739.3    
    1353   1797.9    
    1354   1745.5    
    1355   1762.2    
    1356   1744.6    
    1357   1798.0    
    1358   1737.4    
    1359   1736.3    
    1360   1748.6    
    1361   1756.4    
    1362   1773.1    
    1363   1806.3    
    1364   1813.7    
    1365   1785.5    

 *** ANSYS - ENGINEERING ANALYSIS SYSTEM  RELEASE Release 16.1     16.1     ***
 ANSYS Academic Teaching Advanced                  
 00203145  VERSION=LINUX x64     15:59:22  JUN 12, 2018 CP=     42.892

                                                                               


 
  ***** POST1 NODAL DEGREE OF FREEDOM LISTING *****                            
 
  LOAD STEP=     1  SUBSTEP=     1                                             
   TIME=    1.0000      LOAD CASE=   0                                         
 
    NODE      VOLT  
    1366   1760.8    
    1367   1769.8    
    1368   1735.3    
    1369   1734.2    
    1370   1774.7    
    1371   1815.1    
    1372   1793.8    
    1373   1796.8    
    1374   1785.4    
    1375   1820.5    
    1376   1733.2    
    1377   1732.1    
    1378   1800.1    
    1379   1726.2    
    1380   1778.9    
    1381   1827.7    
    1382   1818.1    
    1383   1827.5    
    1384   1811.0    
    1385   1731.1    
    1386   1730.1    
    1387   1839.3    
    1388   1833.9    
    1389   1826.3    
    1390   1850.0    
    1391   1842.7    
    1392   1843.4    
    1393   1850.0    
    1394   1807.5    
    1395   1806.5    
    1396   1817.3    
    1397   1820.5    
    1398   1814.6    
    1399   1821.6    
    1400  0.11146E-02
    1401  0.44805E-03
    1402  0.45940E-03
    1403  0.40840E-03
    1404   0.0000    

 *** ANSYS - ENGINEERING ANALYSIS SYSTEM  RELEASE Release 16.1     16.1     ***
 ANSYS Academic Teaching Advanced                  
 00203145  VERSION=LINUX x64     15:59:22  JUN 12, 2018 CP=     42.892

                                                                               


 
  ***** POST1 NODAL DEGREE OF FREEDOM LISTING *****                            
 
  LOAD STEP=     1  SUBSTEP=     1                                             
   TIME=    1.0000      LOAD CASE=   0                                         
 
    NODE      VOLT  
    1405   0.0000    
    1406  0.49660E-03
    1407  0.17784E-02
    1408  0.19005E-02
    1409  0.14545E-02
    1410  0.64726E-03
    1411  0.90916E-03
    1412   0.0000    
    1413   0.0000    
    1414  0.10643E-02
    1415  0.24679E-02
    1416  0.33295E-02
    1417  0.14909E-02
    1418  0.17289E-02
    1419  0.12574E-02
    1420   0.0000    
    1421   0.0000    
    1422  0.18473E-02
    1423  0.56157E-02
    1424  0.50824E-02
    1425  0.47485E-02
    1426  0.22914E-02
    1427  0.31538E-02
    1428   0.0000    
    1429   0.0000    
    1430  0.38023E-02
    1431  0.73641E-02
    1432  0.12726E-01
    1433  0.57597E-02
    1434  0.63359E-02
    1435  0.47951E-02
    1436   0.0000    
    1437   0.0000    
    1438  0.64240E-02
    1439  0.21429E-01
    1440  0.18638E-01
    1441  0.19607E-01
    1442  0.90392E-02
    1443  0.12281E-01

 *** ANSYS - ENGINEERING ANALYSIS SYSTEM  RELEASE Release 16.1     16.1     ***
 ANSYS Academic Teaching Advanced                  
 00203145  VERSION=LINUX x64     15:59:22  JUN 12, 2018 CP=     42.894

                                                                               


 
  ***** POST1 NODAL DEGREE OF FREEDOM LISTING *****                            
 
  LOAD STEP=     1  SUBSTEP=     1                                             
   TIME=    1.0000      LOAD CASE=   0                                         
 
    NODE      VOLT  
    1444   0.0000    
    1445   0.0000    
    1446  0.15904E-01
    1447  0.32232E-01
    1448  0.48060E-01
    1449  0.22332E-01
    1450  0.22324E-01
    1451  0.19675E-01
    1452   0.0000    
    1453   0.0000    
    1454  0.20856E-01
    1455  0.77747E-01
    1456  0.74564E-01
    1457  0.62484E-01
    1458  0.27378E-01
    1459  0.35955E-01
    1460   0.0000    
    1461   0.0000    
    1462  0.44049E-01
    1463  0.10947    
    1464  0.12120    
    1465  0.56878E-01
    1466  0.62018E-01
    1467  0.51050E-01
    1468   0.0000    
    1469   0.0000    
    1470  0.68442E-01
    1471  0.19510    
    1472  0.17756    
    1473  0.28564    
    1474  0.13347    
    1475  0.14279    
    1476  0.12301    
    1477   0.0000    
    1478   0.0000    
    1479  0.15182    
    1480  0.45471    
    1481  0.42799    
    1482  0.36342    

 *** ANSYS - ENGINEERING ANALYSIS SYSTEM  RELEASE Release 16.1     16.1     ***
 ANSYS Academic Teaching Advanced                  
 00203145  VERSION=LINUX x64     15:59:22  JUN 12, 2018 CP=     42.894

                                                                               


 
  ***** POST1 NODAL DEGREE OF FREEDOM LISTING *****                            
 
  LOAD STEP=     1  SUBSTEP=     1                                             
   TIME=    1.0000      LOAD CASE=   0                                         
 
    NODE      VOLT  
    1483  0.17348    
    1484  0.19246    
    1485  0.16006    
    1486   0.0000    
    1487   0.0000    
    1488  0.22539    
    1489  0.57232    
    1490  0.52046    
    1491  0.69210    
    1492  0.31158    
    1493  0.37080    
    1494  0.26300    
    1495   0.0000    
    1496   0.0000    
    1497  0.44321    
    1498   1.1636    
    1499  0.96316    
    1500   1.3096    
    1501  0.58405    
    1502  0.64991    
    1503  0.51344    
    1504   0.0000    
    1505   0.0000    
    1506  0.70941    
    1507   2.2338    
    1508   1.9465    
    1509   1186.6    
    1510   1343.1    
    1511   1312.0    
    1512   1370.0    
    1513   1278.3    
    1514   1044.8    
    1515   1087.1    
    1516   1288.2    
    1517   1423.0    
    1518   1404.2    
    1519   1439.7    
    1520   1383.0    
    1521   1167.6    

 *** ANSYS - ENGINEERING ANALYSIS SYSTEM  RELEASE Release 16.1     16.1     ***
 ANSYS Academic Teaching Advanced                  
 00203145  VERSION=LINUX x64     15:59:22  JUN 12, 2018 CP=     42.894

                                                                               


 
  ***** POST1 NODAL DEGREE OF FREEDOM LISTING *****                            
 
  LOAD STEP=     1  SUBSTEP=     1                                             
   TIME=    1.0000      LOAD CASE=   0                                         
 
    NODE      VOLT  
    1522   1194.7    
    1523   1360.5    
    1524   1477.0    
    1525   1466.0    
    1526   1488.1    
    1527   1452.5    
    1528   1256.7    
    1529   1274.3    
    1530   1409.8    
    1531   1514.7    
    1532   1506.6    
    1533   1522.7    
    1534   1497.3    
    1535   1318.0    
    1536   1330.3    
    1537   1446.8    
    1538   1542.8    
    1539   1536.9    
    1540   1549.0    
    1541   1529.9    
    1542   1362.5    
    1543   1372.2    
    1544   1474.6    
    1545   1564.1    
    1546   1559.9    
    1547   1569.5    
    1548   1554.2    
    1549   1396.8    
    1550   1403.7    
    1551   1494.8    
    1552   1580.9    
    1553   1577.9    
    1554   1584.9    
    1555   1572.8    
    1556   1421.0    
    1557   1425.4    
    1558   1507.9    
    1559   1593.0    
    1560   1590.9    

 *** ANSYS - ENGINEERING ANALYSIS SYSTEM  RELEASE Release 16.1     16.1     ***
 ANSYS Academic Teaching Advanced                  
 00203145  VERSION=LINUX x64     15:59:22  JUN 12, 2018 CP=     42.896

                                                                               


 
  ***** POST1 NODAL DEGREE OF FREEDOM LISTING *****                            
 
  LOAD STEP=     1  SUBSTEP=     1                                             
   TIME=    1.0000      LOAD CASE=   0                                         
 
    NODE      VOLT  
    1561   1596.6    
    1562   1586.1    
    1563   1435.2    
    1564   1438.0    
    1565   1518.9    
    1566   1604.0    
    1567   1601.7    
    1568   1608.0    
    1569   1598.3    
    1570   1445.6    
    1571   1449.0    
    1572   1535.8    
    1573   1619.6    
    1574   1616.0    
    1575   1624.8    
    1576   1610.8    
    1577   1463.2    
    1578   1469.3    
    1579   1568.4    
    1580   1646.3    
    1581   1638.3    
    1582   1654.7    
    1583   1630.9    
    1584   1497.7    
    1585   1510.8    
    1586   1620.7    
    1587   1685.4    
    1588   1673.6    
    1589   1697.8    
    1590   1663.9    
    1591   1560.4    
    1592   1579.2    
    1593   1690.7    
    1594   1738.5    
    1595   1723.8    
    1596   1755.5    
    1597   1710.1    
    1598   1643.4    
    1599   1667.2    

 *** ANSYS - ENGINEERING ANALYSIS SYSTEM  RELEASE Release 16.1     16.1     ***
 ANSYS Academic Teaching Advanced                  
 00203145  VERSION=LINUX x64     15:59:22  JUN 12, 2018 CP=     42.896

                                                                               


 
  ***** POST1 NODAL DEGREE OF FREEDOM LISTING *****                            
 
  LOAD STEP=     1  SUBSTEP=     1                                             
   TIME=    1.0000      LOAD CASE=   0                                         
 
    NODE      VOLT  
    1600   8.9481    
    1601   8.5269    
    1602   11.032    
    1603   6.6344    
    1604   1136.7    
    1605   1094.4    
    1606   14.361    
    1607   9.1089    
    1608   7.2055    
    1609   22.257    
    1610   22.544    
    1611   27.883    
    1612   18.857    
    1613   1055.4    
    1614   1018.9    
    1615   34.895    
    1616   21.645    
    1617   17.698    
    1618   50.819    
    1619   51.839    
    1620   65.221    
    1621   44.434    
    1622   985.09    
    1623   952.56    
    1624   80.303    
    1625   48.694    
    1626   40.449    
    1627   115.75    
    1628   117.75    
    1629   141.81    
    1630   100.09    
    1631   922.28    
    1632   893.95    
    1633   175.00    
    1634   110.93    
    1635   89.698    
    1636   273.64    
    1637   260.88    
    1638   309.80    

 *** ANSYS - ENGINEERING ANALYSIS SYSTEM  RELEASE Release 16.1     16.1     ***
 ANSYS Academic Teaching Advanced                  
 00203145  VERSION=LINUX x64     15:59:22  JUN 12, 2018 CP=     42.897

                                                                               


 
  ***** POST1 NODAL DEGREE OF FREEDOM LISTING *****                            
 
  LOAD STEP=     1  SUBSTEP=     1                                             
   TIME=    1.0000      LOAD CASE=   0                                         
 
    NODE      VOLT  
    1639   224.30    
    1640   867.46    
    1641   842.01    
    1642   376.09    
    1643   274.55    
    1644   225.01    
    1645   571.82    
    1646   519.94    
    1647   604.65    
    1648   453.37    
    1649   818.14    
    1650   795.36    
    1651   715.91    
    1652   610.71    
    1653   506.79    
    1654   1006.4    
    1655   922.80    
    1656   1035.4    
    1657   819.78    
    1658   773.92    
    1659   753.56    
    1660   1182.2    
    1661   1114.0    
    1662   989.16    
    1663   31.162    
    1664   17.602    
    1665   15.203    
    1666   19.831    
    1667   0.0000    
    1668   0.0000    
    1669   13.618    
    1670   41.415    
    1671   47.151    
    1672   45.761    
    1673   24.492    
    1674   23.414    
    1675   25.153    
    1676   0.0000    
    1677   0.0000    

 *** ANSYS - ENGINEERING ANALYSIS SYSTEM  RELEASE Release 16.1     16.1     ***
 ANSYS Academic Teaching Advanced                  
 00203145  VERSION=LINUX x64     15:59:22  JUN 12, 2018 CP=     42.898

                                                                               


 
  ***** POST1 NODAL DEGREE OF FREEDOM LISTING *****                            
 
  LOAD STEP=     1  SUBSTEP=     1                                             
   TIME=    1.0000      LOAD CASE=   0                                         
 
    NODE      VOLT  
    1678   22.023    
    1679   64.238    
    1680   67.354    
    1681   47.769    
    1682   25.287    
    1683   25.563    
    1684   25.701    
    1685   0.0000    
    1686   0.0000    
    1687   24.386    
    1688   67.798    
    1689   68.874    
    1690   55.623    
    1691   30.158    
    1692   28.127    
    1693   32.709    
    1694   0.0000    
    1695   0.0000    
    1696   26.844    
    1697   77.505    
    1698   82.496    
    1699   83.653    
    1700   48.742    
    1701   41.172    
    1702   63.388    
    1703   0.0000    
    1704   0.0000    
    1705   36.233    
    1706   109.57    
    1707   124.46    
    1708   128.99    
    1709   65.634    
    1710   67.712    
    1711   66.932    
    1712   0.0000    
    1713   0.0000    
    1714   76.627    
    1715   186.72    
    1716   188.07    

 *** ANSYS - ENGINEERING ANALYSIS SYSTEM  RELEASE Release 16.1     16.1     ***
 ANSYS Academic Teaching Advanced                  
 00203145  VERSION=LINUX x64     15:59:22  JUN 12, 2018 CP=     42.898

                                                                               


 
  ***** POST1 NODAL DEGREE OF FREEDOM LISTING *****                            
 
  LOAD STEP=     1  SUBSTEP=     1                                             
   TIME=    1.0000      LOAD CASE=   0                                         
 
    NODE      VOLT  
    1717   151.11    
    1718   82.718    
    1719   75.561    
    1720   102.59    
    1721   0.0000    
    1722   0.0000    
    1723   68.408    
    1724   213.17    
    1725   230.62    
    1726   1813.2    
    1727   1830.7    
    1728   1834.0    
    1729   1829.6    
    1730   1850.0    
    1731   1850.0    
    1732   1838.8    
    1733   1797.1    
    1734   1787.0    
    1735   1794.2    
    1736   1815.1    
    1737   1823.4    
    1738   1805.1    
    1739   1850.0    
    1740   1850.0    
    1741   1760.1    
    1742   1707.9    
    1743   1770.8    
    1744   1782.5    
    1745   1758.6    
    1746   1850.0    
    1747   1850.0    
    1748   1793.7    
    1749   1657.7    
    1750   1628.1    
    1751   1604.5    
    1752   1714.8    
    1753   1730.9    
    1754   1703.4    
    1755   1850.0    

 *** ANSYS - ENGINEERING ANALYSIS SYSTEM  RELEASE Release 16.1     16.1     ***
 ANSYS Academic Teaching Advanced                  
 00203145  VERSION=LINUX x64     15:59:22  JUN 12, 2018 CP=     42.900

                                                                               


 
  ***** POST1 NODAL DEGREE OF FREEDOM LISTING *****                            
 
  LOAD STEP=     1  SUBSTEP=     1                                             
   TIME=    1.0000      LOAD CASE=   0                                         
 
    NODE      VOLT  
    1756   1850.0    
    1757   1742.5    
    1758   1516.3    
    1759   1479.5    
    1760   1465.5    
    1761   1632.8    
    1762   1648.2    
    1763   1620.0    
    1764   1850.0    
    1765   1850.0    
    1766   1673.6    
    1767   1336.3    
    1768   1296.1    
    1769   1354.6    
    1770   1569.7    
    1771   1582.9    
    1772   1562.5    
    1773   1850.0    
    1774   1850.0    
    1775   1598.8    
    1776   1187.4    
    1777   1162.1    
    1778  0.13355    
    1779  0.11315    
    1780  0.87349E-01
    1781  0.14119    
    1782   0.0000    
    1783   0.0000    
    1784  0.66072E-01
    1785  0.12002    
    1786  0.16486    
    1787  0.30211    
    1788  0.22473    
    1789  0.19676    
    1790  0.25296    
    1791   0.0000    
    1792   0.0000    
    1793  0.17061    
    1794  0.32995    

 *** ANSYS - ENGINEERING ANALYSIS SYSTEM  RELEASE Release 16.1     16.1     ***
 ANSYS Academic Teaching Advanced                  
 00203145  VERSION=LINUX x64     15:59:22  JUN 12, 2018 CP=     42.900

                                                                               


 
  ***** POST1 NODAL DEGREE OF FREEDOM LISTING *****                            
 
  LOAD STEP=     1  SUBSTEP=     1                                             
   TIME=    1.0000      LOAD CASE=   0                                         
 
    NODE      VOLT  
    1795  0.38371    
    1796  0.48587    
    1797  0.34588    
    1798  0.31329    
    1799  0.38023    
    1800   0.0000    
    1801   0.0000    
    1802  0.28232    
    1803  0.55834    
    1804  0.61956    
    1805  0.70906    
    1806  0.49364    
    1807  0.45386    
    1808  0.53590    
    1809   0.0000    
    1810   0.0000    
    1811  0.41604    
    1812  0.83428    
    1813  0.91526    
    1814  0.98302    
    1815  0.67201    
    1816  0.62577    
    1817  0.72542    
    1818   0.0000    
    1819   0.0000    
    1820  0.57916    
    1821   1.1755    
    1822   1.2653    
    1823   1.1568    
    1824  0.73675    
    1825  0.72803    
    1826  0.76609    
    1827   0.0000    
    1828   0.0000    
    1829  0.71672    
    1830   1.4539    
    1831   1.5087    
    1832   1.2923    
    1833  0.88818    

 *** ANSYS - ENGINEERING ANALYSIS SYSTEM  RELEASE Release 16.1     16.1     ***
 ANSYS Academic Teaching Advanced                  
 00203145  VERSION=LINUX x64     15:59:22  JUN 12, 2018 CP=     42.900

                                                                               


 
  ***** POST1 NODAL DEGREE OF FREEDOM LISTING *****                            
 
  LOAD STEP=     1  SUBSTEP=     1                                             
   TIME=    1.0000      LOAD CASE=   0                                         
 
    NODE      VOLT  
    1834  0.82494    
    1835   1.0063    
    1836   0.0000    
    1837   0.0000    
    1838   1.6548    
    1839   2.2808    
    1840   1.5430    
    1841   1.4298    
    1842   1.6663    
    1843   0.0000    
    1844   0.0000    
    1845   1.2080    
    1846   2.6604    
    1847   2.9615    
    1848   2.7164    
    1849   2.0246    
    1850   1.8248    
    1851   2.2231    
    1852   0.0000    
    1853   0.0000    
    1854   3.3138    
    1855   4.4209    
    1856   2.9479    
    1857   2.7566    
    1858   3.1379    
    1859   0.0000    
    1860   0.0000    
    1861   2.5089    
    1862   5.3786    
    1863   5.9527    
    1864   5.4894    
    1865   4.2929    
    1866   3.6148    
    1867   4.7929    
    1868   0.0000    
    1869   0.0000    
    1870   6.8250    
    1871   9.4007    
    1872   6.4039    

 *** ANSYS - ENGINEERING ANALYSIS SYSTEM  RELEASE Release 16.1     16.1     ***
 ANSYS Academic Teaching Advanced                  
 00203145  VERSION=LINUX x64     15:59:22  JUN 12, 2018 CP=     42.902

                                                                               


 
  ***** POST1 NODAL DEGREE OF FREEDOM LISTING *****                            
 
  LOAD STEP=     1  SUBSTEP=     1                                             
   TIME=    1.0000      LOAD CASE=   0                                         
 
    NODE      VOLT  
    1873   5.9899    
    1874   6.9180    
    1875   0.0000    
    1876   0.0000    
    1877   5.3618    
    1878   10.928    
    1879   12.350    
    1880   13.509    
    1881   8.8697    
    1882   7.9161    
    1883   10.769    
    1884   0.0000    
    1885   0.0000    
    1886   7.4157    
    1887   16.413    
    1888   18.270    
    1889   28.951    
    1890   19.771    
    1891   16.504    
    1892   35.357    
    1893   0.0000    
    1894   0.0000    
    1895   12.902    
    1896   32.350    
    1897   40.833    
    1898   1.2910    
    1899  0.64559    
    1900  0.61517    
    1901  0.68683    
    1902   0.0000    
    1903   0.0000    
    1904  0.60817    
    1905   1.9181    
    1906   2.0356    
    1907   1.7225    
    1908  0.77795    
    1909  0.77634    
    1910  0.75641    
    1911   0.0000    

 *** ANSYS - ENGINEERING ANALYSIS SYSTEM  RELEASE Release 16.1     16.1     ***
 ANSYS Academic Teaching Advanced                  
 00203145  VERSION=LINUX x64     15:59:22  JUN 12, 2018 CP=     42.902

                                                                               


 
  ***** POST1 NODAL DEGREE OF FREEDOM LISTING *****                            
 
  LOAD STEP=     1  SUBSTEP=     1                                             
   TIME=    1.0000      LOAD CASE=   0                                         
 
    NODE      VOLT  
    1912   0.0000    
    1913  0.73472    
    1914   2.8274    
    1915   2.9273    
    1916   52.067    
    1917   42.216    
    1918   47.962    
    1919   36.208    
    1920   53.349    
    1921   63.062    
    1922   54.882    
    1923   81.355    
    1924   65.032    
    1925   70.792    
    1926   59.207    
    1927   77.011    
    1928   99.547    
    1929   89.765    
    1930   116.33    
    1931   89.519    
    1932   97.654    
    1933   83.298    
    1934   105.60    
    1935   143.20    
    1936   132.48    
    1937   87.314    
    1938   82.200    
    1939   68.500    
    1940   96.821    
    1941   53.717    
    1942   88.487    
    1943   102.25    
    1944   73.261    
    1945   52.611    
    1946   50.797    
    1947   49.126    
    1948   85.059    
    1949   330.10    
    1950   336.89    

 *** ANSYS - ENGINEERING ANALYSIS SYSTEM  RELEASE Release 16.1     16.1     ***
 ANSYS Academic Teaching Advanced                  
 00203145  VERSION=LINUX x64     15:59:22  JUN 12, 2018 CP=     42.903

                                                                               


 
  ***** POST1 NODAL DEGREE OF FREEDOM LISTING *****                            
 
  LOAD STEP=     1  SUBSTEP=     1                                             
   TIME=    1.0000      LOAD CASE=   0                                         
 
    NODE      VOLT  
    1951   240.77    
    1952   441.55    
    1953   156.33    
    1954   335.55    
    1955   408.31    
    1956   1443.5    
    1957   1644.6    
    1958   1620.1    
    1959   1661.8    
    1960   1850.0    
    1961   1850.0    
    1962   1600.2    
    1963   1248.8    
    1964   1313.0    
    1965   1334.6    
    1966   1568.9    
    1967   1563.4    
    1968   1580.8    
    1969   1850.0    
    1970   1850.0    
    1971   1560.0    
    1972   1138.8    
    1973   1150.1    
    1974  0.41484E-02
    1975  0.33321E-02
    1976  0.24371E-02
    1977  0.39410E-02
    1978  0.65032E-02
    1979  0.14222E-01
    1980  0.10453E-01
    1981  0.84118E-02
    1982  0.10674E-01
    1983  0.21801E-01
    1984  0.59494E-01
    1985  0.44789E-01
    1986  0.35604E-01
    1987  0.46892E-01
    1988  0.89643E-01
    1989  0.15757    

 *** ANSYS - ENGINEERING ANALYSIS SYSTEM  RELEASE Release 16.1     16.1     ***
 ANSYS Academic Teaching Advanced                  
 00203145  VERSION=LINUX x64     15:59:22  JUN 12, 2018 CP=     42.904

                                                                               


 
  ***** POST1 NODAL DEGREE OF FREEDOM LISTING *****                            
 
  LOAD STEP=     1  SUBSTEP=     1                                             
   TIME=    1.0000      LOAD CASE=   0                                         
 
    NODE      VOLT  
    1990  0.13606    
    1991  0.96291E-01
    1992  0.16786    
    1993  0.22642    
    1994  0.49875    
    1995  0.48179    
    1996  0.31966    
    1997  0.65015    
    1998  0.69246    
    1999  0.36085    
    2000  0.24390    
    2001  0.39558    
    2002  0.11018    
    2003  0.56883    
    2004  0.47151    
    2005  0.32580    
    2006  0.80531    
    2007  0.67189    
    2008  0.48948    
    2009  0.80363    
    2010   1.1760    
    2011   1.6556    
    2012   1.3917    
    2013  0.98406    
    2014   1.7306    
    2015   2.5155    
    2016   2.7695    
    2017   2.5125    
    2018   1.6042    
    2019   3.4419    
    2020   4.3299    
    2021   1144.6    
    2022   1244.0    
    2023   1118.5    
    2024   1003.1    
    2025   1064.5    
    2026   1238.3    
    2027   1328.8    
    2028   1217.5    

 *** ANSYS - ENGINEERING ANALYSIS SYSTEM  RELEASE Release 16.1     16.1     ***
 ANSYS Academic Teaching Advanced                  
 00203145  VERSION=LINUX x64     15:59:22  JUN 12, 2018 CP=     42.904

                                                                               


 
  ***** POST1 NODAL DEGREE OF FREEDOM LISTING *****                            
 
  LOAD STEP=     1  SUBSTEP=     1                                             
   TIME=    1.0000      LOAD CASE=   0                                         
 
    NODE      VOLT  
    2029   1117.6    
    2030   1163.7    
    2031   1304.8    
    2032   1387.1    
    2033   1290.2    
    2034   1202.7    
    2035   1235.7    
    2036   1353.1    
    2037   1429.7    
    2038   1342.0    
    2039   1263.9    
    2040   1287.9    
    2041   1389.4    
    2042   1461.6    
    2043   1380.9    
    2044   1309.1    
    2045   1327.5    
    2046   1415.9    
    2047   1485.7    
    2048   1410.0    
    2049   1343.1    
    2050   1355.8    
    2051   1432.4    
    2052   1502.0    
    2053   1428.8    
    2054   1365.1    
    2055   1371.3    
    2056   1443.0    
    2057   1513.2    
    2058   1440.7    
    2059   1376.6    
    2060   1381.3    
    2061   1457.7    
    2062   1525.8    
    2063   1452.8    
    2064   1388.0    
    2065   1397.8    
    2066   1486.8    
    2067   1549.3    

 *** ANSYS - ENGINEERING ANALYSIS SYSTEM  RELEASE Release 16.1     16.1     ***
 ANSYS Academic Teaching Advanced                  
 00203145  VERSION=LINUX x64     15:59:22  JUN 12, 2018 CP=     42.906

                                                                               


 
  ***** POST1 NODAL DEGREE OF FREEDOM LISTING *****                            
 
  LOAD STEP=     1  SUBSTEP=     1                                             
   TIME=    1.0000      LOAD CASE=   0                                         
 
    NODE      VOLT  
    2068   1477.3    
    2069   1411.7    
    2070   1433.1    
    2071   1542.1    
    2072   1591.8    
    2073   1525.5    
    2074   1463.2    
    2075   1502.0    
    2076   1621.0    
    2077   1654.2    
    2078   1599.8    
    2079   1547.3    
    2080   1596.1    
    2081   1723.9    
    2082   1735.5    
    2083   1694.3    
    2084   1774.0    
    2085   1652.4    
    2086   1719.3    
    2087   1755.5    
    2088   14.229    
    2089   11.401    
    2090   14.383    
    2091   8.9405    
    2092   13.794    
    2093   31.742    
    2094   26.208    
    2095   33.560    
    2096   20.453    
    2097   29.956    
    2098   73.938    
    2099   61.551    
    2100   76.898    
    2101   45.483    
    2102   69.740    
    2103   174.84    
    2104   137.98    
    2105   176.16    
    2106   107.68    

 *** ANSYS - ENGINEERING ANALYSIS SYSTEM  RELEASE Release 16.1     16.1     ***
 ANSYS Academic Teaching Advanced                  
 00203145  VERSION=LINUX x64     15:59:22  JUN 12, 2018 CP=     42.906

                                                                               


 
  ***** POST1 NODAL DEGREE OF FREEDOM LISTING *****                            
 
  LOAD STEP=     1  SUBSTEP=     1                                             
   TIME=    1.0000      LOAD CASE=   0                                         
 
    NODE      VOLT  
    2107   170.81    
    2108   411.38    
    2109   334.59    
    2110   394.23    
    2111   270.68    
    2112   414.95    
    2113   860.23    
    2114   732.18    
    2115   775.56    
    2116   671.70    
    2117   954.85    
    2118   58.922    
    2119   39.203    
    2120   53.053    
    2121   63.349    
    2122   78.742    
    2123   67.509    
    2124   47.229    
    2125   67.641    
    2126   86.376    
    2127   85.739    
    2128   73.800    
    2129   50.355    
    2130   70.997    
    2131   89.133    
    2132   96.155    
    2133   98.433    
    2134   65.708    
    2135   89.267    
    2136   108.67    
    2137   129.29    
    2138   170.35    
    2139   121.95    
    2140   144.42    
    2141   95.826    
    2142   161.89    
    2143   211.97    
    2144   202.59    
    2145   194.04    

 *** ANSYS - ENGINEERING ANALYSIS SYSTEM  RELEASE Release 16.1     16.1     ***
 ANSYS Academic Teaching Advanced                  
 00203145  VERSION=LINUX x64     15:59:22  JUN 12, 2018 CP=     42.906

                                                                               


 
  ***** POST1 NODAL DEGREE OF FREEDOM LISTING *****                            
 
  LOAD STEP=     1  SUBSTEP=     1                                             
   TIME=    1.0000      LOAD CASE=   0                                         
 
    NODE      VOLT  
    2146   188.64    
    2147   140.74    
    2148   238.39    
    2149   240.07    
    2150   201.61    
    2151   132.32    
    2152   193.16    
    2153   247.64    
    2154   269.57    
    2155   291.53    
    2156   203.09    
    2157   256.08    
    2158   309.18    
    2159   370.80    
    2160   1697.9    
    2161   1754.2    
    2162   1730.4    
    2163   1720.3    
    2164   1636.4    
    2165   1552.3    
    2166   1655.8    
    2167   1587.9    
    2168   1534.9    
    2169   1446.1    
    2170   1382.9    
    2171   1539.7    
    2172   1432.4    
    2173   1347.2    
    2174   1236.6    
    2175   1216.4    
    2176   1414.3    
    2177   1243.3    
    2178   1133.8    
    2179   1056.6    
    2180   1137.7    
    2181   1330.5    
    2182   1146.7    
    2183   996.20    
    2184   974.66    

 *** ANSYS - ENGINEERING ANALYSIS SYSTEM  RELEASE Release 16.1     16.1     ***
 ANSYS Academic Teaching Advanced                  
 00203145  VERSION=LINUX x64     15:59:22  JUN 12, 2018 CP=     42.908

                                                                               


 
  ***** POST1 NODAL DEGREE OF FREEDOM LISTING *****                            
 
  LOAD STEP=     1  SUBSTEP=     1                                             
   TIME=    1.0000      LOAD CASE=   0                                         
 
    NODE      VOLT  
    2185  0.62096E-01
    2186  0.86736E-01
    2187  0.72285E-01
    2188  0.50448E-01
    2189  0.43510E-01
    2190  0.27352    
    2191  0.21612    
    2192  0.21922    
    2193  0.19775    
    2194  0.32517    
    2195  0.49844    
    2196  0.39073    
    2197  0.44072    
    2198  0.45630    
    2199  0.59183    
[...]
   50059   401.58    
   50060   125.76    
   50061   128.65    
   50062   129.58    
   50063   145.95    
   50064   148.90    
   50065   150.64    
   50066   345.17    
   50067   335.51    
   50068   343.88    
   50069   368.12    
   50070   378.86    
   50071   382.26    
   50072   1411.7    
   50073   1427.1    
   50074   1421.7    
   50075   1202.7    
   50076   1195.2    

 *** ANSYS - ENGINEERING ANALYSIS SYSTEM  RELEASE Release 16.1     16.1     ***
 ANSYS Academic Teaching Advanced                  
 00203145  VERSION=LINUX x64     15:59:22  JUN 12, 2018 CP=     43.366

                                                                               


 
  ***** POST1 NODAL DEGREE OF FREEDOM LISTING *****                            
 
  LOAD STEP=     1  SUBSTEP=     1                                             
   TIME=    1.0000      LOAD CASE=   0                                         
 
    NODE      VOLT  
   50077   1178.7    
   50078   927.69    
   50079   914.81    
   50080   898.66    
   50081  0.81026    
   50082  0.81186    
   50083  0.83597    
   50084   3.6862    
   50085   3.6086    
   50086   3.7656    
   50087   7.6852    
   50088   7.5072    
   50089   7.9009    
   50090   17.714    
   50091   17.797    
   50092   18.661    
   50093   137.68    
   50094   137.00    
   50095   141.48    
   50096   211.95    
   50097   209.82    
   50098   217.47    
   50099   253.05    
   50100   241.55    
   50101   250.18    
   50102   118.69    
   50103   117.99    
   50104   125.83    
   50105  0.95051    
   50106  0.98266    
   50107  0.98308    
   50108   2.6816    
   50109   2.8301    
   50110   2.7673    
   50111   8.9329    
   50112   9.5026    
   50113   9.5575    
   50114   610.81    
   50115   600.98    

 *** ANSYS - ENGINEERING ANALYSIS SYSTEM  RELEASE Release 16.1     16.1     ***
 ANSYS Academic Teaching Advanced                  
 00203145  VERSION=LINUX x64     15:59:22  JUN 12, 2018 CP=     43.366

                                                                               


 
  ***** POST1 NODAL DEGREE OF FREEDOM LISTING *****                            
 
  LOAD STEP=     1  SUBSTEP=     1                                             
   TIME=    1.0000      LOAD CASE=   0                                         
 
    NODE      VOLT  
   50116   593.52    
   50117   761.97    
   50118   753.02    
   50119   745.53    
   50120   889.26    
   50121   882.39    
   50122   875.55    
   50123   979.07    
   50124   974.37    
   50125   967.05    
   50126   1042.2    
   50127   1038.7    
   50128   1031.0    
   50129   1091.9    
   50130   1089.1    
   50131   1081.4    
   50132   1125.4    
   50133   1124.4    
   50134   1116.4    
   50135   1124.4    
   50136   1125.2    
   50137   1114.9    
   50138   1122.3    
   50139   1121.8    
   50140   1111.0    
   50141   1138.1    
   50142   1137.1    
   50143   1126.4    
   50144   1179.7    
   50145   1173.7    
   50146   1163.1    
   50147   1343.2    
   50148   1330.4    
   50149   1329.4    
   50150   18.341    
   50151   19.509    
   50152   18.196    
   50153   45.810    
   50154   48.545    

 *** ANSYS - ENGINEERING ANALYSIS SYSTEM  RELEASE Release 16.1     16.1     ***
 ANSYS Academic Teaching Advanced                  
 00203145  VERSION=LINUX x64     15:59:22  JUN 12, 2018 CP=     43.367

                                                                               


 
  ***** POST1 NODAL DEGREE OF FREEDOM LISTING *****                            
 
  LOAD STEP=     1  SUBSTEP=     1                                             
   TIME=    1.0000      LOAD CASE=   0                                         
 
    NODE      VOLT  
   50155   45.501    
   50156   160.35    
   50157   158.71    
   50158   162.36    
   50159   186.76    
   50160   185.17    
   50161   189.48    
   50162   221.44    
   50163   216.30    
   50164   220.11    
   50165   292.07    
   50166   292.63    
   50167   300.09    
   50168   433.57    
   50169   430.77    
   50170   440.66    
   50171   722.32    
   50172   742.69    
   50173   718.03    
   50174   1.3582    
   50175   1.3106    
   50176   1.3348    
   50177   2.3596    
   50178   2.2813    
   50179   2.3557    
   50180   3.4588    
   50181   3.3310    
   50182   3.3462    
   50183   7.0529    
   50184   6.6902    
   50185   6.6909    
   50186   25.129    
   50187   23.757    
   50188   25.207    
   50189   162.89    
   50190   166.47    
   50191   167.07    
   50192   249.84    
   50193   257.67    

 *** ANSYS - ENGINEERING ANALYSIS SYSTEM  RELEASE Release 16.1     16.1     ***
 ANSYS Academic Teaching Advanced                  
 00203145  VERSION=LINUX x64     15:59:22  JUN 12, 2018 CP=     43.367

                                                                               


 
  ***** POST1 NODAL DEGREE OF FREEDOM LISTING *****                            
 
  LOAD STEP=     1  SUBSTEP=     1                                             
   TIME=    1.0000      LOAD CASE=   0                                         
 
    NODE      VOLT  
   50194   256.80    
   50195   379.30    
   50196   381.13    
   50197   396.26    
   50198   3.9402    
   50199   4.0965    
   50200   4.1486    
   50201   623.91    
   50202   607.44    
   50203   616.99    
   50204   773.79    
   50205   759.83    
   50206   768.70    
   50207   888.19    
   50208   876.53    
   50209   882.37    
   50210   965.35    
   50211   954.84    
   50212   958.83    
   50213   1021.4    
   50214   1011.2    
   50215   1014.4    
   50216   1069.8    
   50217   1060.7    
   50218   1063.3    
   50219   1084.3    
   50220   1076.4    
   50221   1075.7    
   50222   1068.9    
   50223   1058.7    
   50224   1058.0    
   50225   1073.2    
   50226   1061.3    
   50227   1062.7    
   50228   1083.0    
   50229   1069.4    
   50230   1070.4    
   50231   1186.9    
   50232   1168.6    

 *** ANSYS - ENGINEERING ANALYSIS SYSTEM  RELEASE Release 16.1     16.1     ***
 ANSYS Academic Teaching Advanced                  
 00203145  VERSION=LINUX x64     15:59:22  JUN 12, 2018 CP=     43.368

                                                                               


 
  ***** POST1 NODAL DEGREE OF FREEDOM LISTING *****                            
 
  LOAD STEP=     1  SUBSTEP=     1                                             
   TIME=    1.0000      LOAD CASE=   0                                         
 
    NODE      VOLT  
   50233   1182.7    
   50234   155.62    
   50235   154.11    
   50236   157.85    
   50237   158.00    
   50238   159.40    
   50239   161.50    
   50240   188.96    
   50241   191.23    
   50242   193.24    
   50243   268.37    
   50244   265.57    
   50245   271.59    
   50246   338.77    
   50247   332.74    
   50248   339.47    
   50249   461.14    
   50250   452.55    
   50251   458.87    
   50252   513.03    
   50253   507.60    
   50254   491.77    
   50255   208.51    
   50256   210.05    
   50257   214.26    
   50258   341.27    
   50259   344.77    
   50260   353.48    
   50261   433.01    
   50262   449.03    
   50263   443.92    
   50264   694.94    
   50265   686.48    
   50266   685.40    
   50267   805.92    
   50268   800.00    
   50269   796.32    
   50270   882.94    
   50271   879.28    

 *** ANSYS - ENGINEERING ANALYSIS SYSTEM  RELEASE Release 16.1     16.1     ***
 ANSYS Academic Teaching Advanced                  
 00203145  VERSION=LINUX x64     15:59:22  JUN 12, 2018 CP=     43.368

                                                                               


 
  ***** POST1 NODAL DEGREE OF FREEDOM LISTING *****                            
 
  LOAD STEP=     1  SUBSTEP=     1                                             
   TIME=    1.0000      LOAD CASE=   0                                         
 
    NODE      VOLT  
   50272   874.40    
   50273   934.38    
   50274   931.20    
   50275   925.29    
   50276   993.11    
   50277   988.83    
   50278   984.20    
   50279   953.33    
   50280   955.86    
   50281   944.29    
   50282   948.49    
   50283   945.67    
   50284   934.81    
   50285   931.27    
   50286   939.97    
   50287   921.77    
   50288   182.12    
   50289   183.88    
   50290   185.66    
   50291   186.22    
   50292   184.08    
   50293   187.58    
   50294   226.01    
   50295   223.32    
   50296   227.91    
   50297   271.64    
   50298   265.84    
   50299   268.52    
   50300   318.04    
   50301   320.89    
   50302   324.83    
   50303   404.43    
   50304   403.23    
   50305   410.41    
   50306   534.52    
   50307   532.15    
   50308   540.47    
   50309   599.24    
   50310   593.01    

 *** ANSYS - ENGINEERING ANALYSIS SYSTEM  RELEASE Release 16.1     16.1     ***
 ANSYS Academic Teaching Advanced                  
 00203145  VERSION=LINUX x64     15:59:22  JUN 12, 2018 CP=     43.368

                                                                               


 
  ***** POST1 NODAL DEGREE OF FREEDOM LISTING *****                            
 
  LOAD STEP=     1  SUBSTEP=     1                                             
   TIME=    1.0000      LOAD CASE=   0                                         
 
    NODE      VOLT  
   50311   602.73    
   50312   769.40    
   50313   791.86    
   50314   776.98    
   50315   213.43    
   50316   217.89    
   50317   215.36    
   50318   590.45    
   50319   599.35    
   50320   610.57    
   50321   722.22    
   50322   713.48    
   50323   719.92    
   50324   815.63    
   50325   807.29    
   50326   812.47    
   50327   872.75    
   50328   864.50    
   50329   867.20    
   50330   922.92    
   50331   913.47    
   50332   917.31    
   50333   880.77    
   50334   869.11    
   50335   867.28    
   50336   217.26    
   50337   218.47    
   50338   221.33    
   50339   317.45    
   50340   313.35    
   50341   320.31    
   50342   374.54    
   50343   371.55    
   50344   378.53    
   50345   430.98    
   50346   423.25    
   50347   428.78    
   50348   562.16    
   50349   553.69    

 *** ANSYS - ENGINEERING ANALYSIS SYSTEM  RELEASE Release 16.1     16.1     ***
 ANSYS Academic Teaching Advanced                  
 00203145  VERSION=LINUX x64     15:59:22  JUN 12, 2018 CP=     43.369

                                                                               


 
  ***** POST1 NODAL DEGREE OF FREEDOM LISTING *****                            
 
  LOAD STEP=     1  SUBSTEP=     1                                             
   TIME=    1.0000      LOAD CASE=   0                                         
 
    NODE      VOLT  
   50350   560.39    
   50351   590.83    
   50352   595.57    
   50353   598.97    
   50354   668.40    
   50355   662.62    
   50356   660.66    
   50357   765.64    
   50358   759.39    
   50359   758.46    
   50360   841.28    
   50361   837.51    
   50362   831.63    
   50363   594.50    
   50364   612.41    
   50365   602.98    
   50366   726.62    
   50367   736.17    
   50368   742.33    
   50369   376.01    
   50370   380.79    
   50371   384.69    
   50372   502.86    
   50373   501.29    
   50374   509.83    
   50375   638.07    
   50376   637.51    
   50377   645.47    
   50378   690.36    
   50379   682.51    
   50380   688.90    
   50381   474.41    
   50382   481.43    
   50383   467.21    
   50384   463.63    
   50385   459.57    
   50386   470.84    
   50387   542.73    
   50388   532.08    

 *** ANSYS - ENGINEERING ANALYSIS SYSTEM  RELEASE Release 16.1     16.1     ***
 ANSYS Academic Teaching Advanced                  
 00203145  VERSION=LINUX x64     15:59:22  JUN 12, 2018 CP=     43.369

                                                                               


 
  ***** POST1 NODAL DEGREE OF FREEDOM LISTING *****                            
 
  LOAD STEP=     1  SUBSTEP=     1                                             
   TIME=    1.0000      LOAD CASE=   0                                         
 
    NODE      VOLT  
   50389   541.10    
   50390   1493.2    
   50391   1522.4    
   50392   1509.8    
   50393   1668.0    
   50394   1697.9    
   50395   1694.6    
   50396   1448.3    
   50397   1461.6    
   50398   1483.1    
   50399   1283.4    
   50400   1310.3    
   50401   1277.5    
   50402   1135.3    
   50403   1120.5    
   50404   1087.3    
   50405   780.83    
   50406   800.72    
   50407   761.19    
   50408   526.64    
   50409   552.70    
   50410   534.85    
   50411   11.889    
   50412   11.523    
   50413   13.952    
   50414   21.822    
   50415   19.834    
   50416   21.586    
   50417   42.784    
   50418   40.913    
   50419   40.621    
   50420  0.82664    
   50421  0.84005    
   50422   1.0050    
   50423   2.3770    
   50424   2.1897    
   50425   2.4761    
   50426   1.6028    
   50427   1.7708    

 *** ANSYS - ENGINEERING ANALYSIS SYSTEM  RELEASE Release 16.1     16.1     ***
 ANSYS Academic Teaching Advanced                  
 00203145  VERSION=LINUX x64     15:59:22  JUN 12, 2018 CP=     43.369

                                                                               


 
  ***** POST1 NODAL DEGREE OF FREEDOM LISTING *****                            
 
  LOAD STEP=     1  SUBSTEP=     1                                             
   TIME=    1.0000      LOAD CASE=   0                                         
 
    NODE      VOLT  
   50428   1.7672    
   50429  0.11364E-01
   50430  0.92171E-02
   50431  0.11216E-01
   50432  0.25207E-02
   50433  0.19431E-02
   50434  0.17590E-02
   50435  0.30529E-02
   50436  0.33334E-02
   50437  0.27390E-02
   50438  0.12164    
   50439  0.12471    
   50440  0.14857    
   50441  0.19878    
   50442  0.22406    
   50443  0.21673    
   50444  0.76380E-02
   50445  0.69331E-02
   50446  0.75444E-02
   50447   1011.0    
   50448   1021.5    
   50449   1046.4    
   50450   4.7829    
   50451   5.0500    
   50452   5.1558    
   50453   3.7739    
   50454   4.0185    
   50455   3.7704    
   50456   50.190    
   50457   52.780    
   50458   52.197    
   50459   30.656    
   50460   31.744    
   50461   28.775    
   50462  0.17165E-01
   50463  0.16271E-01
   50464  0.17904E-01
   50465  0.31321E-01
   50466  0.34281E-01

 *** ANSYS - ENGINEERING ANALYSIS SYSTEM  RELEASE Release 16.1     16.1     ***
 ANSYS Academic Teaching Advanced                  
 00203145  VERSION=LINUX x64     15:59:22  JUN 12, 2018 CP=     43.370

                                                                               


 
  ***** POST1 NODAL DEGREE OF FREEDOM LISTING *****                            
 
  LOAD STEP=     1  SUBSTEP=     1                                             
   TIME=    1.0000      LOAD CASE=   0                                         
 
    NODE      VOLT  
   50467  0.34398E-01
   50468   826.66    
   50469   862.89    
   50470   851.04    
   50471   634.46    
   50472   661.72    
   50473   633.65    
   50474   30.955    
   50475   29.440    
   50476   30.539    
   50477   70.799    
   50478   74.096    
   50479   75.129    
   50480   1051.6    
   50481   1072.2    
   50482   1052.3    
   50483   843.98    
   50484   847.15    
   50485   824.86    
   50486   477.90    
   50487   487.27    
   50488   464.50    
   50489   830.60    
   50490   836.43    
   50491   824.96    
   50492   736.29    
   50493   730.60    
   50494   723.19    
   50495   722.80    
   50496   700.66    
   50497   692.72    
   50498   813.53    
   50499   783.18    
   50500   809.64    
   50501   164.00    
   50502   173.22    
   50503   168.57    
   50504   121.61    
   50505   125.23    

 *** ANSYS - ENGINEERING ANALYSIS SYSTEM  RELEASE Release 16.1     16.1     ***
 ANSYS Academic Teaching Advanced                  
 00203145  VERSION=LINUX x64     15:59:22  JUN 12, 2018 CP=     43.370

                                                                               


 
  ***** POST1 NODAL DEGREE OF FREEDOM LISTING *****                            
 
  LOAD STEP=     1  SUBSTEP=     1                                             
   TIME=    1.0000      LOAD CASE=   0                                         
 
    NODE      VOLT  
   50506   121.03    
   50507   1824.1    
   50508   1829.3    
   50509   1828.2    
   50510   1793.7    
   50511   1800.6    
   50512   1795.2    
   50513  0.27759    
   50514  0.25977    
   50515  0.26919    
   50516  0.43548    
   50517  0.42685    
   50518  0.44961    
   50519   2.2603    
   50520   2.3952    
   50521   2.2623    
   50522   1.2748    
   50523   1.2940    
   50524   1.2098    
   50525   192.53    
   50526   193.75    
   50527   198.37    
   50528   210.25    
   50529   218.41    
   50530   216.48    
   50531   330.27    
   50532   326.91    
   50533   342.47    
   50534   438.57    
   50535   449.92    
   50536   455.97    
   50537   1.8768    
   50538   1.8918    
   50539   1.9466    
   50540   1.9372    
   50541   2.0190    
   50542   1.9710    
   50543   314.51    
   50544   333.63    

 *** ANSYS - ENGINEERING ANALYSIS SYSTEM  RELEASE Release 16.1     16.1     ***
 ANSYS Academic Teaching Advanced                  
 00203145  VERSION=LINUX x64     15:59:22  JUN 12, 2018 CP=     43.371

                                                                               


 
  ***** POST1 NODAL DEGREE OF FREEDOM LISTING *****                            
 
  LOAD STEP=     1  SUBSTEP=     1                                             
   TIME=    1.0000      LOAD CASE=   0                                         
 
    NODE      VOLT  
   50545   319.01    
   50546   183.06    
   50547   186.37    
   50548   174.60    
   50549   508.10    
   50550   514.29    
   50551   520.06    
   50552   497.44    
   50553   511.48    
   50554   502.63    
   50555   996.80    
   50556   999.81    
   50557   990.76    
   50558   930.65    
   50559   923.41    
   50560   919.96    
   50561   247.21    
   50562   247.20    
   50563   242.54    
   50564   364.10    
   50565   374.86    
   50566   371.33    
   50567   304.49    
   50568   309.87    
   50569   302.37    
   50570   641.58    
   50571   643.49    
   50572   652.62    
   50573   678.28    
   50574   686.98    
   50575   686.22    
   50576   585.07    
   50577   562.41    
   50578   575.89    
   50579   769.88    
   50580   755.84    
   50581   781.16    
   50582   1.2361    
   50583   1.2354    

 *** ANSYS - ENGINEERING ANALYSIS SYSTEM  RELEASE Release 16.1     16.1     ***
 ANSYS Academic Teaching Advanced                  
 00203145  VERSION=LINUX x64     15:59:22  JUN 12, 2018 CP=     43.371

                                                                               


 
  ***** POST1 NODAL DEGREE OF FREEDOM LISTING *****                            
 
  LOAD STEP=     1  SUBSTEP=     1                                             
   TIME=    1.0000      LOAD CASE=   0                                         
 
    NODE      VOLT  
   50584   1.2689    
   50585   1.3624    
   50586   1.4075    
   50587   1.3917    
   50588   1.8008    
   50589   1.8442    
   50590   1.8964    
   50591   1.7917    
   50592   1.8654    
   50593   1.8206    
   50594   799.58    
   50595   798.45    
   50596   792.36    
   50597   776.11    
   50598   767.05    
   50599   769.25    
   50600   61.309    
   50601   64.733    
   50602   65.215    
   50603   49.584    
   50604   52.595    
   50605   50.243    
   50606   122.12    
   50607   123.96    
   50608   126.17    
   50609   127.14    
   50610   130.71    
   50611   129.60    

 MAXIMUM ABSOLUTE VALUES
 NODE        163
 VALUE    1850.0    
