
 LIST ALL SELECTED ELEMENTS.  (LIST NODES)

 *** ANSYS - ENGINEERING ANALYSIS SYSTEM  RELEASE Release 16.1     16.1     ***
 ANSYS Academic Teaching Advanced                  
 00203145  VERSION=LINUX x64     16:01:42  JUN 12, 2018 CP=     42.039

                                                                               


 
    ELEM MAT TYP REL ESY SEC        NODES
 
       1   3   1   1   0   1    148     2    10    10    71     9    10    94
       2   3   1   1   0   1    148     6     2     2   147     7     2    71
       3   3   1   1   0   1    148     1     4     4    72     3     4   146
       4   3   1   1   0   1    148 13667     1     1   145 13670     1    72
       5   3   1   1   0   1   3851  3843 13583 13583 13671 13601 13583 13618
       6   3   1   1   0   1    162   160   161   161    74    78   161    73
       7   3   1   1   0   1    160   162    49    49    74    75    49   120
       8   3   1   1   0   1     43  3861    38    38 13668 13637    38    42
       9   3   1   1   0   1   3864  3854 13619 13619 13665 13628 13619 13645
      10   3   1   1   0   1     36   161   160   160    80    78   160   119
      11   3   1   1   0   1   3846  3836  3834  3834 13663 13592  3834 13609
      12   3   1   1   0   1   3833 13659     8     8 13660 13661     8 13582
      13   3   1   1   0   1     12   149   148   148    96    93   148    95
      14   3   1   1   0   1     14   150   149   149    98    92   149    97
      15   3   1   1   0   1     16   151   150   150   100    91   150    99
      16   3   1   1   0   1     18   152   151   151   102    90   151   101
      17   3   1   1   0   1     20   153   152   152   104    89   152   103
      18   3   1   1   0   1     22   154   153   153   106    88   153   105
      19   3   1   1   0   1     24   155   154   154   108    87   154   107
      20   3   1   1   0   1     26   156   155   155   110    86   155   109
      21   3   1   1   0   1     28   157   156   156   112    85   156   111
      22   3   1   1   0   1     30   158   157   157   114    84   157   113
      23   3   1   1   0   1     32   159   158   158   116    83   158   115
      24   3   1   1   0   1     34   160   159   159   118    82   159   117
      25   3   1   1   0   1     51   159   160   160   122    82   160   121
      26   3   1   1   0   1     53   158   159   159   124    83   159   123
      27   3   1   1   0   1     55   157   158   158   126    84   158   125
      28   3   1   1   0   1     57   156   157   157   128    85   157   127
      29   3   1   1   0   1     59   155   156   156   130    86   156   129
      30   3   1   1   0   1     61   154   155   155   132    87   155   131
      31   3   1   1   0   1     63   153   154   154   134    88   154   133
      32   3   1   1   0   1     65   152   153   153   136    89   153   135
      33   3   1   1   0   1     67   151   152   152   138    90   152   137
      34   3   1   1   0   1     69   150   151   151   140    91   151   139
      35   3   1   1   0   1   1241   149   150   150   142    92   150   141
      36   3   1   1   0   1   3874   148   149   149   144    93   149   143
      37   3   1   1   0   1     10    12   148   148    11    95   148    94
      38   3   1   1   0   1     12    14   149   149    13    97   149    96
      39   3   1   1   0   1     14    16   150   150    15    99   150    98
      40   3   1   1   0   1     16    18   151   151    17   101   151   100
      41   3   1   1   0   1     18    20   152   152    19   103   152   102
      42   3   1   1   0   1     20    22   153   153    21   105   153   104
      43   3   1   1   0   1     22    24   154   154    23   107   154   106
      44   3   1   1   0   1     24    26   155   155    25   109   155   108
      45   3   1   1   0   1     26    28   156   156    27   111   156   110
      46   3   1   1   0   1     28    30   157   157    29   113   157   112
      47   3   1   1   0   1     30    32   158   158    31   115   158   114
      48   3   1   1   0   1     32    34   159   159    33   117   159   116
      49   3   1   1   0   1     34    36   160   160    35   119   160   118
      50   3   1   1   0   1     49    51   160   160    50   121   160   120

 *** ANSYS - ENGINEERING ANALYSIS SYSTEM  RELEASE Release 16.1     16.1     ***
 ANSYS Academic Teaching Advanced                  
 00203145  VERSION=LINUX x64     16:01:42  JUN 12, 2018 CP=     42.039

                                                                               


 
    ELEM MAT TYP REL ESY SEC        NODES
 
      51   3   1   1   0   1     51    53   159   159    52   123   159   122
      52   3   1   1   0   1     53    55   158   158    54   125   158   124
      53   3   1   1   0   1     55    57   157   157    56   127   157   126
      54   3   1   1   0   1     57    59   156   156    58   129   156   128
      55   3   1   1   0   1     59    61   155   155    60   131   155   130
      56   3   1   1   0   1     61    63   154   154    62   133   154   132
      57   3   1   1   0   1     63    65   153   153    64   135   153   134
      58   3   1   1   0   1     65    67   152   152    66   137   152   136
      59   3   1   1   0   1     67    69   151   151    68   139   151   138
      60   3   1   1   0   1     69  1241   150   150    70   141   150   140
      61   3   1   1   0   1   1241  3874   149   149  1244   143   149   142
      62   3   1   1   0   1   3874 13667   148   148  3877   145   148   144
      63   3   1   1   0   1      4     6   148   148     5   147   148   146
      64   5   1   1   0   1   3874   294 13667 13667   232   234 13667  3877
      65   5   1   1   0   1   3874   227   294   294   290   240   294   232
      66   5   1   1   0   1    293   197   195   195   242   196   195   233
      67   5   1   1   0   1    292   293   195   195   236   233   195   246
      68   5   1   1   0   1  13667   294   291   291   234   238   291   248
      69   5   1   1   0   1    225    65   223   223   235   285   223   224
      70   5   1   1   0   1    225    67    65    65   287    66    65   235
      71   5   1   1   0   1   4123  4192   179   179 14319 14315   179 14168
      72   5   1   1   0   1   4192  4115   179   179 14316 14151   179 14315
      73   5   1   1   0   1    291   294   230   230   238   239   230   249
      74   5   1   1   0   1    294   199   230   230   241   231   230   239
      75   5   1   1   0   1    227   199   294   294   228   241   294   240
      76   5   1   1   0   1  14311  4133   163   163 14312 14187   163 14314
      77   5   1   1   0   1   4136  4126   171   171 14309 14178   171 14195
      78   5   1   1   0   1    292   193   201   201   247   200   201   245
      79   5   1   1   0   1    195   193   292   292   194   247   292   246
      80   5   1   1   0   1    291     1 13667 13667   250 13670 13667   248
      81   5   1   1   0   1    230     1   291   291   229   250   291   249
      82   5   1   1   0   1   4003  3995 13712 13712 14307 13905 13712 13922
      83   5   1   1   0   1   4118  4109   187   187 14305 14142   187 14159
      84   5   1   1   0   1   4102  4092  1305  1305 14303 14108  1305 14125
      85   5   1   1   0   1   4089  4081  1336  1336 14301 14081  1336 14098
      86   5   1   1   0   1   4084  4075  1376  1376 14299 14072  1376 14089
      87   5   1   1   0   1   4068  4058  3936  3936 14297 14038  3936 14055
      88   5   1   1   0   1   4037  4029  4038  4038 14295 13975  4038 13992
      89   5   1   1   0   1   4055  4047  3970  3970 14293 14011  3970 14028
      90   5   1   1   0   1   4050  4040  4004  4004 14291 14002  4004 14019
      91   5   1   1   0   1   4032  4023  4073  4073 14289 13966  4073 13983
      92   5   1   1   0   1   4016  4006 13677 13677 14287 13932 13677 13949
      93   5   1   1   0   1   3998  3989 13747 13747 14285 13896 13747 13913
      94   5   1   1   0   1   3982  3972 13818 13818 14283 13862 13818 13879
      95   5   1   1   0   1   3969  3961 13853 13853 14281 13835 13853 13852
      96   5   1   1   0   1   3964  3955 13888 13888 14279 13826 13888 13843
      97   5   1   1   0   1   3948  3938 13958 13958 14277 13792 13958 13809
      98   5   1   1   0   1   3917  3909 14064 14064 14275 13729 14064 13746
      99   5   1   1   0   1   3935  3927 13993 13993 14273 13765 13993 13782
     100   5   1   1   0   1   3930  3920 14029 14029 14271 13756 14029 13773

 *** ANSYS - ENGINEERING ANALYSIS SYSTEM  RELEASE Release 16.1     16.1     ***
 ANSYS Academic Teaching Advanced                  
 00203145  VERSION=LINUX x64     16:01:42  JUN 12, 2018 CP=     42.039

                                                                               


 
    ELEM MAT TYP REL ESY SEC        NODES
 
     101   5   1   1   0   1   3912  3903 14099 14099 14269 13720 14099 13737
     102   5   1   1   0   1   3896  3886 14169 14169 14267 13686 14169 13703
     103   5   1   1   0   1   3883  4138    38    38 14265 14261    38 13676
     104   5   1   1   0   1     69   225   227   227   286   226   227   288
     105   5   1   1   0   1    223    61   221   221   283   281   221   222
     106   5   1   1   0   1   4138    43    38    38 14262    42    38 14261
     107   5   1   1   0   1     51    49   217   217    50   273   217   274
     108   5   1   1   0   1     51   219    53    53   275   276    53    52
     109   5   1   1   0   1     51   217   219   219   274   218   219   275
     110   5   1   1   0   1     55    53   219   219    54   276   219   277
     111   5   1   1   0   1     57    55   219   219    56   277   219   278
     112   5   1   1   0   1    221    57   219   219   279   278   219   220
     113   5   1   1   0   1    221    59    57    57   282    58    57   279
     114   5   1   1   0   1     61    59   221   221    60   282   221   281
     115   5   1   1   0   1    223    63    61    61   284    62    61   283
     116   5   1   1   0   1     65    63   223   223    64   284   223   285
     117   5   1   1   0   1     69    67   225   225    68   287   225   286
     118   5   1   1   0   1   1241    69   227   227    70   288   227   289
     119   5   1   1   0   1   3874  1241   227   227  1244   289   227   290
     120   3   1   1   0   1    359   360   357   357   323   329   357   333
     121   3   1   1   0   1   3753  3745 13389 13389 13577 13407 13389 13424
     122   3   1   1   0   1   3787  3709 13460 13460 13575 13335 13460 13494
     123   3   1   1   0   1    361   355   356   356   325   342   356   324
     124   3   1   1   0   1    355   361   321   321   325   326   321   351
     125   3   1   1   0   1  13571  3797   310   310 13572 13513   310 13574
     126   3   1   1   0   1   3800  3790 13495 13495 13569 13504 13495 13521
     127   3   1   1   0   1   3717  3779  3700  3700 13567 13477  3700 13352
     128   3   1   1   0   1   3782  3773  1155  1155 13565 13468  1155 13485
     129   3   1   1   0   1   3766  3756 13425 13425 13563 13434 13425 13451
     130   3   1   1   0   1  13557   359   357   357   335   333   357   348
     131   3   1   1   0   1   3748  3738  3736  3736 13561 13398  3736 13415
     132   3   1   1   0   1   3735   304   302   302 13558   303   302 13388
     133   3   1   1   0   1    319   358   355   355   339   337   355   352
     134   3   1   1   0   1    355   358   298   298   337   338   298   353
     135   3   1   1   0   1    358   295   298   298   340   297   298   338
     136   3   1   1   0   1    319   295   358   358   318   340   358   339
     137   3   1   1   0   1   3699  3727 13317 13317 13555 13371 13317 13316
     138   3   1   1   0   1    356   296   357   357   350   347   357   341
     139   3   1   1   0   1    355   300   356   356   354   349   356   342
     140   3   1   1   0   1   3730  3720  3771  3771 13553 13362  3771 13379
     141   3   1   1   0   1   3712  3702 13353 13353 13551 13326 13353 13343
     142   3   1   1   0   1    296 13557   357   357 13560   348   357   347
     143   3   1   1   0   1    300   296   356   356   301   350   356   349
     144   3   1   1   0   1    321   319   355   355   320   352   355   351
     145   3   1   1   0   1    298   300   355   355   299   354   355   353
     146   6   1   1   0   1  13307 13305 13306 13306 50611 50609 13306 50610
     147   6   1   1   0   1  13304 13302 13303 13303 50608 50606 13303 50607
     148   6   1   1   0   1  13301 13299 13300 13300 50605 50603 13300 50604
     149   6   1   1   0   1  13298 13296 13297 13297 50602 50600 13297 50601
     150   6   1   1   0   1  13295 13293 13294 13294 50599 50597 13294 50598

 *** ANSYS - ENGINEERING ANALYSIS SYSTEM  RELEASE Release 16.1     16.1     ***
 ANSYS Academic Teaching Advanced                  
 00203145  VERSION=LINUX x64     16:01:42  JUN 12, 2018 CP=     42.040

                                                                               


 
    ELEM MAT TYP REL ESY SEC        NODES
 
     151   6   1   1   0   1  13292 13290 13291 13291 50596 50594 13291 50595
     152   6   1   1   0   1  13289 13287 13288 13288 50593 50591 13288 50592
     153   6   1   1   0   1  13286 13284 13285 13285 50590 50588 13285 50589
     154   6   1   1   0   1  13283 13281 13282 13282 50587 50585 13282 50586
     155   6   1   1   0   1  13280 13278 13279 13279 50584 50582 13279 50583
     156   6   1   1   0   1  13277 13275 13276 13276 50581 50579 13276 50580
     157   6   1   1   0   1  13274 13272 13273 13273 50578 50576 13273 50577
     158   6   1   1   0   1  13271 13269 13270 13270 50575 50573 13270 50574
     159   6   1   1   0   1  13268 13266 13267 13267 50572 50570 13267 50571
     160   6   1   1   0   1  13265 13263 13264 13264 50569 50567 13264 50568
     161   6   1   1   0   1  13262 13260 13261 13261 50566 50564 13261 50565
     162   6   1   1   0   1  13259 13257 13258 13258 50563 50561 13258 50562
     163   6   1   1   0   1  13256 13254 13255 13255 50560 50558 13255 50559
     164   6   1   1   0   1  13253 13251 13252 13252 50557 50555 13252 50556
     165   6   1   1   0   1  13250 13248 13249 13249 50554 50552 13249 50553
     166   6   1   1   0   1  13247 13245 13246 13246 50551 50549 13246 50550
     167   6   1   1   0   1  13244 13242 13243 13243 50548 50546 13243 50547
     168   6   1   1   0   1  13241 13239 13240 13240 50545 50543 13240 50544
     169   6   1   1   0   1  13238 13236 13237 13237 50542 50540 13237 50541
     170   6   1   1   0   1  13235 13233 13234 13234 50539 50537 13234 50538
     171   6   1   1   0   1  13232 13230 13231 13231 50536 50534 13231 50535
     172   6   1   1   0   1  13229 13227 13228 13228 50533 50531 13228 50532
     173   6   1   1   0   1  13226 13224 13225 13225 50530 50528 13225 50529
     174   6   1   1   0   1  13223 13221 13222 13222 50527 50525 13222 50526
     175   6   1   1   0   1  13220 13218 13219 13219 50524 50522 13219 50523
     176   6   1   1   0   1  13217 13215 13216 13216 50521 50519 13216 50520
     177   6   1   1   0   1  13214 13212 13213 13213 50518 50516 13213 50517
     178   6   1   1   0   1  13211 13209 13210 13210 50515 50513 13210 50514
     179   6   1   1   0   1  13208 13206 13207 13207 50512 50510 13207 50511
     180   6   1   1   0   1  13205 13203 13204 13204 50509 50507 13204 50508
     181   6   1   1   0   1  13202 13200 13201 13201 50506 50504 13201 50505
     182   6   1   1   0   1  13199 13197 13198 13198 50503 50501 13198 50502
     183   6   1   1   0   1  13196 13194 13195 13195 50500 50498 13195 50499
     184   6   1   1   0   1  13193 13191 13192 13192 50497 50495 13192 50496
     185   6   1   1   0   1  13190 13188 13189 13189 50494 50492 13189 50493
     186   6   1   1   0   1  13187 13185 13186 13186 50491 50489 13186 50490
     187   6   1   1   0   1  13184 13182 13183 13183 50488 50486 13183 50487
     188   6   1   1   0   1  13181 13179 13180 13180 50485 50483 13180 50484
     189   6   1   1   0   1  13178 13176 13177 13177 50482 50480 13177 50481
     190   6   1   1   0   1  13175 13173 13174 13174 50479 50477 13174 50478
     191   6   1   1   0   1  13172 13170 13171 13171 50476 50474 13171 50475
     192   6   1   1   0   1  13169 13167 13168 13168 50473 50471 13168 50472
     193   6   1   1   0   1  13166 13164 13165 13165 50470 50468 13165 50469
     194   6   1   1   0   1  13163 13161 13162 13162 50467 50465 13162 50466
     195   6   1   1   0   1  13160 13158 13159 13159 50464 50462 13159 50463
     196   6   1   1   0   1  13157 13155 13156 13156 50461 50459 13156 50460
     197   6   1   1   0   1  13154 13152 13153 13153 50458 50456 13153 50457
     198   6   1   1   0   1  13151 13149 13150 13150 50455 50453 13150 50454
     199   6   1   1   0   1  13148 13146 13147 13147 50452 50450 13147 50451
     200   6   1   1   0   1  13145 13143 13144 13144 50449 50447 13144 50448

 *** ANSYS - ENGINEERING ANALYSIS SYSTEM  RELEASE Release 16.1     16.1     ***
 ANSYS Academic Teaching Advanced                  
 00203145  VERSION=LINUX x64     16:01:42  JUN 12, 2018 CP=     42.040

                                                                               


 
    ELEM MAT TYP REL ESY SEC        NODES
 
     201   6   1   1   0   1  13142 13140 13141 13141 50446 50444 13141 50445
     202   6   1   1   0   1  13139 13137 13138 13138 50443 50441 13138 50442
     203   6   1   1   0   1  13136 13134 13135 13135 50440 50438 13135 50439
     204   6   1   1   0   1  13133 13131 13132 13132 50437 50435 13132 50436
     205   6   1   1   0   1  13130 13128 13129 13129 50434 50432 13129 50433
     206   6   1   1   0   1  13127 13125 13126 13126 50431 50429 13126 50430
     207   6   1   1   0   1  13124 13122 13123 13123 50428 50426 13123 50427
     208   6   1   1   0   1  13121 13119 13120 13120 50425 50423 13120 50424
     209   6   1   1   0   1  13118 13116 13117 13117 50422 50420 13117 50421
     210   6   1   1   0   1  13115 13113 13114 13114 50419 50417 13114 50418
     211   6   1   1   0   1  13112 13110 13111 13111 50416 50414 13111 50415
     212   6   1   1   0   1  13109 13107 13108 13108 50413 50411 13108 50412
     213   6   1   1   0   1  13106 13104 13105 13105 50410 50408 13105 50409
     214   6   1   1   0   1  13103 13101 13102 13102 50407 50405 13102 50406
     215   6   1   1   0   1  13100 13098 13099 13099 50404 50402 13099 50403
     216   6   1   1   0   1  13097 13095 13096 13096 50401 50399 13096 50400
     217   6   1   1   0   1  13094 13092 13093 13093 50398 50396 13093 50397
     218   6   1   1   0   1  13091 13089 13090 13090 50395 50393 13090 50394
     219   6   1   1   0   1  13088 13086 13087 13087 50392 50390 13087 50391
     220   6   1   1   0   1  13085 13083 13084 13084 50389 50387 13084 50388
     221   6   1   1   0   1  13082 13080 13081 13081 50386 50384 13081 50385
     222   6   1   1   0   1  13079 13077 13078 13078 50383 50381 13078 50382
     223   6   1   1   0   1  13076 13074 13075 13075 50380 50378 13075 50379
     224   6   1   1   0   1  13073 13071 13072 13072 50377 50375 13072 50376
     225   6   1   1   0   1  13070 13068 13069 13069 50374 50372 13069 50373
     226   6   1   1   0   1  13067 13065 13066 13066 50371 50369 13066 50370
     227   6   1   1   0   1  13064 13062 13063 13063 50368 50366 13063 50367
     228   6   1   1   0   1  13061 13059 13060 13060 50365 50363 13060 50364
     229   6   1   1   0   1  13058 13056 13057 13057 50362 50360 13057 50361
     230   6   1   1   0   1  13055 13053 13054 13054 50359 50357 13054 50358
     231   6   1   1   0   1  13052 13050 13051 13051 50356 50354 13051 50355
     232   6   1   1   0   1  13049 13047 13048 13048 50353 50351 13048 50352
     233   6   1   1   0   1  13046 13044 13045 13045 50350 50348 13045 50349
     234   6   1   1   0   1  13043 13041 13042 13042 50347 50345 13042 50346
     235   6   1   1   0   1  13040 13038 13039 13039 50344 50342 13039 50343
     236   6   1   1   0   1  13037 13035 13036 13036 50341 50339 13036 50340
     237   6   1   1   0   1  13034 13032 13033 13033 50338 50336 13033 50337
     238   6   1   1   0   1  13031 13029 13030 13030 50335 50333 13030 50334
     239   6   1   1   0   1  13028 13026 13027 13027 50332 50330 13027 50331
     240   6   1   1   0   1  13025 13023 13024 13024 50329 50327 13024 50328
     241   6   1   1   0   1  13022 13020 13021 13021 50326 50324 13021 50325
     242   6   1   1   0   1  13019 13017 13018 13018 50323 50321 13018 50322
     243   6   1   1   0   1  13016 13014 13015 13015 50320 50318 13015 50319
     244   6   1   1   0   1  13013 13011 13012 13012 50317 50315 13012 50316
     245   6   1   1   0   1  13010 13008 13009 13009 50314 50312 13009 50313
     246   6   1   1   0   1  13007 13005 13006 13006 50311 50309 13006 50310
     247   6   1   1   0   1  13004 13002 13003 13003 50308 50306 13003 50307
     248   6   1   1   0   1  13001 12999 13000 13000 50305 50303 13000 50304
     249   6   1   1   0   1  12998 12996 12997 12997 50302 50300 12997 50301
     250   6   1   1   0   1  12995 12993 12994 12994 50299 50297 12994 50298

 *** ANSYS - ENGINEERING ANALYSIS SYSTEM  RELEASE Release 16.1     16.1     ***
 ANSYS Academic Teaching Advanced                  
 00203145  VERSION=LINUX x64     16:01:42  JUN 12, 2018 CP=     42.041

                                                                               


 
    ELEM MAT TYP REL ESY SEC        NODES
 
     251   6   1   1   0   1  12992 12990 12991 12991 50296 50294 12991 50295
     252   6   1   1   0   1  12989 12987 12988 12988 50293 50291 12988 50292
     253   6   1   1   0   1  12986 12984 12985 12985 50290 50288 12985 50289
     254   6   1   1   0   1  12983 12981 12982 12982 50287 50285 12982 50286
     255   6   1   1   0   1  12980 12978 12979 12979 50284 50282 12979 50283
     256   6   1   1   0   1  12977 12975 12976 12976 50281 50279 12976 50280
     257   6   1   1   0   1  12974 12972 12973 12973 50278 50276 12973 50277
     258   6   1   1   0   1  12971 12969 12970 12970 50275 50273 12970 50274
     259   6   1   1   0   1  12968 12966 12967 12967 50272 50270 12967 50271
     260   6   1   1   0   1  12965 12963 12964 12964 50269 50267 12964 50268
     261   6   1   1   0   1  12962 12960 12961 12961 50266 50264 12961 50265
     262   6   1   1   0   1  12959 12957 12958 12958 50263 50261 12958 50262
     263   6   1   1   0   1  12956 12954 12955 12955 50260 50258 12955 50259
     264   6   1   1   0   1  12953 12951 12952 12952 50257 50255 12952 50256
     265   6   1   1   0   1  12950 12948 12949 12949 50254 50252 12949 50253
     266   6   1   1   0   1  12947 12945 12946 12946 50251 50249 12946 50250
     267   6   1   1   0   1  12944 12942 12943 12943 50248 50246 12943 50247
     268   6   1   1   0   1  12941 12939 12940 12940 50245 50243 12940 50244
     269   6   1   1   0   1  12938 12936 12937 12937 50242 50240 12937 50241
     270   6   1   1   0   1  12935 12933 12934 12934 50239 50237 12934 50238
     271   6   1   1   0   1  12932 12930 12931 12931 50236 50234 12931 50235
     272   6   1   1   0   1  12929 12927 12928 12928 50233 50231 12928 50232
     273   6   1   1   0   1  12926 12924 12925 12925 50230 50228 12925 50229
     274   6   1   1   0   1  12923 12921 12922 12922 50227 50225 12922 50226
     275   6   1   1   0   1  12920 12918 12919 12919 50224 50222 12919 50223
     276   6   1   1   0   1  12917 12915 12916 12916 50221 50219 12916 50220
     277   6   1   1   0   1  12914 12912 12913 12913 50218 50216 12913 50217
     278   6   1   1   0   1  12911 12909 12910 12910 50215 50213 12910 50214
     279   6   1   1   0   1  12908 12906 12907 12907 50212 50210 12907 50211
     280   6   1   1   0   1  12905 12903 12904 12904 50209 50207 12904 50208
     281   6   1   1   0   1  12902 12900 12901 12901 50206 50204 12901 50205
     282   6   1   1   0   1  12899 12897 12898 12898 50203 50201 12898 50202
     283   6   1   1   0   1  12896 12894 12895 12895 50200 50198 12895 50199
     284   6   1   1   0   1  12893 12891 12892 12892 50197 50195 12892 50196
     285   6   1   1   0   1  12890 12888 12889 12889 50194 50192 12889 50193
     286   6   1   1   0   1  12887 12885 12886 12886 50191 50189 12886 50190
     287   6   1   1   0   1  12884 12882 12883 12883 50188 50186 12883 50187
     288   6   1   1   0   1  12881 12879 12880 12880 50185 50183 12880 50184
     289   6   1   1   0   1  12878 12876 12877 12877 50182 50180 12877 50181
     290   6   1   1   0   1  12875 12873 12874 12874 50179 50177 12874 50178
     291   6   1   1   0   1  12872 12870 12871 12871 50176 50174 12871 50175
     292   6   1   1   0   1  12869 12867 12868 12868 50173 50171 12868 50172
     293   6   1   1   0   1  12866 12864 12865 12865 50170 50168 12865 50169
     294   6   1   1   0   1  12863 12861 12862 12862 50167 50165 12862 50166
     295   6   1   1   0   1  12860 12858 12859 12859 50164 50162 12859 50163
     296   6   1   1   0   1  12857 12855 12856 12856 50161 50159 12856 50160
     297   6   1   1   0   1  12854 12852 12853 12853 50158 50156 12853 50157
     298   6   1   1   0   1  12851 12849 12850 12850 50155 50153 12850 50154
     299   6   1   1   0   1  12848 12846 12847 12847 50152 50150 12847 50151
     300   6   1   1   0   1  12845 12843 12844 12844 50149 50147 12844 50148

 *** ANSYS - ENGINEERING ANALYSIS SYSTEM  RELEASE Release 16.1     16.1     ***
 ANSYS Academic Teaching Advanced                  
 00203145  VERSION=LINUX x64     16:01:42  JUN 12, 2018 CP=     42.041

                                                                               


 
    ELEM MAT TYP REL ESY SEC        NODES
 
     301   6   1   1   0   1  12842 12840 12841 12841 50146 50144 12841 50145
     302   6   1   1   0   1  12839 12837 12838 12838 50143 50141 12838 50142
     303   6   1   1   0   1  12836 12834 12835 12835 50140 50138 12835 50139
     304   6   1   1   0   1  12833 12831 12832 12832 50137 50135 12832 50136
     305   6   1   1   0   1  12830 12828 12829 12829 50134 50132 12829 50133
     306   6   1   1   0   1  12827 12825 12826 12826 50131 50129 12826 50130
     307   6   1   1   0   1  12824 12822 12823 12823 50128 50126 12823 50127
     308   6   1   1   0   1  12821 12819 12820 12820 50125 50123 12820 50124
     309   6   1   1   0   1  12818 12816 12817 12817 50122 50120 12817 50121
     310   6   1   1   0   1  12815 12813 12814 12814 50119 50117 12814 50118
     311   6   1   1   0   1  12812 12810 12811 12811 50116 50114 12811 50115
     312   6   1   1   0   1  12809 12807 12808 12808 50113 50111 12808 50112
     313   6   1   1   0   1  12806 12804 12805 12805 50110 50108 12805 50109
     314   6   1   1   0   1  12803 12801 12802 12802 50107 50105 12802 50106
     315   6   1   1   0   1  12800 12798 12799 12799 50104 50102 12799 50103
     316   6   1   1   0   1  12797 12795 12796 12796 50101 50099 12796 50100
     317   6   1   1   0   1  12794 12792 12793 12793 50098 50096 12793 50097
     318   6   1   1   0   1  12791 12789 12790 12790 50095 50093 12790 50094
     319   6   1   1   0   1  12788 12786 12787 12787 50092 50090 12787 50091
     320   6   1   1   0   1  12785 12783 12784 12784 50089 50087 12784 50088
     321   6   1   1   0   1  12782 12780 12781 12781 50086 50084 12781 50085
     322   6   1   1   0   1  12779 12777 12778 12778 50083 50081 12778 50082
     323   6   1   1   0   1  12776 12774 12775 12775 50080 50078 12775 50079
     324   6   1   1   0   1  12773 12771 12772 12772 50077 50075 12772 50076
     325   6   1   1   0   1  12770 12768 12769 12769 50074 50072 12769 50073
     326   6   1   1   0   1  12767 12765 12766 12766 50071 50069 12766 50070
     327   6   1   1   0   1  12764 12762 12763 12763 50068 50066 12763 50067
     328   6   1   1   0   1  12761 12759 12760 12760 50065 50063 12760 50064
     329   6   1   1   0   1  12758 12756 12757 12757 50062 50060 12757 50061
     330   6   1   1   0   1  12755 12753 12754 12754 50059 50057 12754 50058
     331   6   1   1   0   1  12752 12750 12751 12751 50056 50054 12751 50055
     332   6   1   1   0   1  12749 12747 12748 12748 50053 50051 12748 50052
     333   6   1   1   0   1  12746 12744 12745 12745 50050 50048 12745 50049
     334   6   1   1   0   1  12743 12741 12742 12742 50047 50045 12742 50046
     335   6   1   1   0   1  12740 12738 12739 12739 50044 50042 12739 50043
     336   6   1   1   0   1  12737 12735 12736 12736 50041 50039 12736 50040
     337   6   1   1   0   1  12734 12732 12733 12733 50038 50036 12733 50037
     338   6   1   1   0   1  12731 12729 12730 12730 50035 50033 12730 50034
     339   6   1   1   0   1  12728 12726 12727 12727 50032 50030 12727 50031
     340   6   1   1   0   1  12725 12723 12724 12724 50029 50027 12724 50028
     341   6   1   1   0   1  12722 12720 12721 12721 50026 50024 12721 50025
     342   6   1   1   0   1  12719 12717 12718 12718 50023 50021 12718 50022
     343   6   1   1   0   1  12716 12714 12715 12715 50020 50018 12715 50019
     344   6   1   1   0   1  12713 12711 12712 12712 50017 50015 12712 50016
     345   6   1   1   0   1  12710 12708 12709 12709 50014 50012 12709 50013
     346   6   1   1   0   1  12707 12705 12706 12706 50011 50009 12706 50010
     347   6   1   1   0   1  12704 12702 12703 12703 50008 50006 12703 50007
     348   6   1   1   0   1  12701 12699 12700 12700 50005 50003 12700 50004
     349   6   1   1   0   1  12698 12696 12697 12697 50002 50000 12697 50001
     350   6   1   1   0   1  12695 12693 12694 12694 49999 49997 12694 49998

 *** ANSYS - ENGINEERING ANALYSIS SYSTEM  RELEASE Release 16.1     16.1     ***
 ANSYS Academic Teaching Advanced                  
 00203145  VERSION=LINUX x64     16:01:42  JUN 12, 2018 CP=     42.041

                                                                               


 
    ELEM MAT TYP REL ESY SEC        NODES
 
     351   6   1   1   0   1  12692 12690 12691 12691 49996 49994 12691 49995
     352   6   1   1   0   1  12689 12687 12688 12688 49993 49991 12688 49992
     353   6   1   1   0   1  12686 12684 12685 12685 49990 49988 12685 49989
     354   6   1   1   0   1  12683 12681 12682 12682 49987 49985 12682 49986
     355   6   1   1   0   1  12680 12678 12679 12679 49984 49982 12679 49983
     356   6   1   1   0   1  12677 12675 12676 12676 49981 49979 12676 49980
     357   6   1   1   0   1  12674 12672 12673 12673 49978 49976 12673 49977
     358   6   1   1   0   1  12671 12669 12670 12670 49975 49973 12670 49974
     359   6   1   1   0   1  12668 12666 12667 12667 49972 49970 12667 49971
     360   6   1   1   0   1  12665 12663 12664 12664 49969 49967 12664 49968
     361   6   1   1   0   1  12662 12660 12661 12661 49966 49964 12661 49965
     362   6   1   1   0   1  12659 12657 12658 12658 49963 49961 12658 49962
     363   6   1   1   0   1  12656 12654 12655 12655 49960 49958 12655 49959
     364   6   1   1   0   1  12653 12651 12652 12652 49957 49955 12652 49956
     365   6   1   1   0   1  12650 12648 12649 12649 49954 49952 12649 49953
     366   6   1   1   0   1  12647 12645 12646 12646 49951 49949 12646 49950
     367   6   1   1   0   1  12644 12642 12643 12643 49948 49946 12643 49947
     368   6   1   1   0   1  12641 12639 12640 12640 49945 49943 12640 49944
     369   6   1   1   0   1  12638 12636 12637 12637 49942 49940 12637 49941
     370   6   1   1   0   1  12635 12633 12634 12634 49939 49937 12634 49938
     371   6   1   1   0   1  12632 12630 12631 12631 49936 49934 12631 49935
     372   6   1   1   0   1  12629 12627 12628 12628 49933 49931 12628 49932
     373   6   1   1   0   1  12626 12624 12625 12625 49930 49928 12625 49929
     374   6   1   1   0   1  12623 12621 12622 12622 49927 49925 12622 49926
     375   6   1   1   0   1  12620 12618 12619 12619 49924 49922 12619 49923
     376   6   1   1   0   1  12617 12615 12616 12616 49921 49919 12616 49920
     377   6   1   1   0   1  12614 12612 12613 12613 49918 49916 12613 49917
     378   6   1   1   0   1  12611 12609 12610 12610 49915 49913 12610 49914
     379   6   1   1   0   1  12608 12606 12607 12607 49912 49910 12607 49911
     380   6   1   1   0   1  12605 12603 12604 12604 49909 49907 12604 49908
     381   6   1   1   0   1  12602 12600 12601 12601 49906 49904 12601 49905
     382   6   1   1   0   1  12599 12597 12598 12598 49903 49901 12598 49902
     383   6   1   1   0   1  12596 12594 12595 12595 49900 49898 12595 49899
     384   6   1   1   0   1  12593 12591 12592 12592 49897 49895 12592 49896
     385   6   1   1   0   1  12590 12588 12589 12589 49894 49892 12589 49893
     386   6   1   1   0   1  12587 12585 12586 12586 49891 49889 12586 49890
     387   6   1   1   0   1  12584 12582 12583 12583 49888 49886 12583 49887
     388   6   1   1   0   1  12581 12579 12580 12580 49885 49883 12580 49884
     389   6   1   1   0   1  12578 12576 12577 12577 49882 49880 12577 49881
     390   6   1   1   0   1  12575 12573 12574 12574 49879 49877 12574 49878
     391   6   1   1   0   1  12572 12570 12571 12571 49876 49874 12571 49875
     392   6   1   1   0   1  12569 12567 12568 12568 49873 49871 12568 49872
     393   6   1   1   0   1  12566 12564 12565 12565 49870 49868 12565 49869
     394   6   1   1   0   1  12563 12561 12562 12562 49867 49865 12562 49866
     395   6   1   1   0   1  12560 12558 12559 12559 49864 49862 12559 49863
     396   6   1   1   0   1  12557 12555 12556 12556 49861 49859 12556 49860
     397   6   1   1   0   1  12554 12552 12553 12553 49858 49856 12553 49857
     398   6   1   1   0   1  12551 12549 12550 12550 49855 49853 12550 49854
     399   6   1   1   0   1  12548 12546 12547 12547 49852 49850 12547 49851
     400   6   1   1   0   1  12545 12543 12544 12544 49849 49847 12544 49848

 *** ANSYS - ENGINEERING ANALYSIS SYSTEM  RELEASE Release 16.1     16.1     ***
 ANSYS Academic Teaching Advanced                  
 00203145  VERSION=LINUX x64     16:01:42  JUN 12, 2018 CP=     42.042

                                                                               


 
    ELEM MAT TYP REL ESY SEC        NODES
 
     401   6   1   1   0   1  12542 12540 12541 12541 49846 49844 12541 49845
     402   6   1   1   0   1  12539 12537 12538 12538 49843 49841 12538 49842
     403   6   1   1   0   1  12536 12534 12535 12535 49840 49838 12535 49839
     404   6   1   1   0   1  12533 12531 12532 12532 49837 49835 12532 49836
     405   6   1   1   0   1  12530 12528 12529 12529 49834 49832 12529 49833
     406   6   1   1   0   1  12527 12525 12526 12526 49831 49829 12526 49830
     407   6   1   1   0   1  12524 12522 12523 12523 49828 49826 12523 49827
     408   6   1   1   0   1  12521 12519 12520 12520 49825 49823 12520 49824
     409   6   1   1   0   1  12518 12516 12517 12517 49822 49820 12517 49821
     410   6   1   1   0   1  12515 12513 12514 12514 49819 49817 12514 49818
     411   6   1   1   0   1  12512 12510 12511 12511 49816 49814 12511 49815
     412   6   1   1   0   1  12509 12507 12508 12508 49813 49811 12508 49812
     413   6   1   1   0   1  12506 12504 12505 12505 49810 49808 12505 49809
     414   6   1   1   0   1  12503 12501 12502 12502 49807 49805 12502 49806
     415   6   1   1   0   1  12500 12498 12499 12499 49804 49802 12499 49803
     416   6   1   1   0   1  12497 12495 12496 12496 49801 49799 12496 49800
     417   6   1   1   0   1  12494 12492 12493 12493 49798 49796 12493 49797
     418   6   1   1   0   1  12491 12489 12490 12490 49795 49793 12490 49794
     419   6   1   1   0   1  12488 12486 12487 12487 49792 49790 12487 49791
     420   6   1   1   0   1  12485 12483 12484 12484 49789 49787 12484 49788
     421   6   1   1   0   1  12482 12480 12481 12481 49786 49784 12481 49785
     422   6   1   1   0   1  12479 12477 12478 12478 49783 49781 12478 49782
     423   6   1   1   0   1  12476 12474 12475 12475 49780 49778 12475 49779
     424   6   1   1   0   1  12473 12471 12472 12472 49777 49775 12472 49776
     425   6   1   1   0   1  12470 12468 12469 12469 49774 49772 12469 49773
     426   6   1   1   0   1  12467 12465 12466 12466 49771 49769 12466 49770
     427   6   1   1   0   1  12464 12462 12463 12463 49768 49766 12463 49767
     428   6   1   1   0   1  12461 12459 12460 12460 49765 49763 12460 49764
     429   6   1   1   0   1  12458 12456 12457 12457 49762 49760 12457 49761
     430   6   1   1   0   1  12455 12453 12454 12454 49759 49757 12454 49758
     431   6   1   1   0   1  12452 12450 12451 12451 49756 49754 12451 49755
     432   6   1   1   0   1  12449 12447 12448 12448 49753 49751 12448 49752
     433   6   1   1   0   1  12446 12444 12445 12445 49750 49748 12445 49749
     434   6   1   1   0   1  12443 12441 12442 12442 49747 49745 12442 49746
     435   6   1   1   0   1  12440 12438 12439 12439 49744 49742 12439 49743
     436   6   1   1   0   1  12437 12435 12436 12436 49741 49739 12436 49740
     437   6   1   1   0   1  12434 12432 12433 12433 49738 49736 12433 49737
     438   6   1   1   0   1  12431 12429 12430 12430 49735 49733 12430 49734
     439   6   1   1   0   1  12428 12426 12427 12427 49732 49730 12427 49731
     440   6   1   1   0   1  12425 12423 12424 12424 49729 49727 12424 49728
     441   6   1   1   0   1  12422 12420 12421 12421 49726 49724 12421 49725
     442   6   1   1   0   1  12419 12417 12418 12418 49723 49721 12418 49722
     443   6   1   1   0   1  12416 12414 12415 12415 49720 49718 12415 49719
     444   6   1   1   0   1  12413 12411 12412 12412 49717 49715 12412 49716
     445   6   1   1   0   1  12410 12408 12409 12409 49714 49712 12409 49713
     446   6   1   1   0   1  12407 12405 12406 12406 49711 49709 12406 49710
     447   6   1   1   0   1  12404 12402 12403 12403 49708 49706 12403 49707
     448   6   1   1   0   1  12401 12399 12400 12400 49705 49703 12400 49704
     449   6   1   1   0   1  12398 12396 12397 12397 49702 49700 12397 49701
     450   6   1   1   0   1  12395 12393 12394 12394 49699 49697 12394 49698

 *** ANSYS - ENGINEERING ANALYSIS SYSTEM  RELEASE Release 16.1     16.1     ***
 ANSYS Academic Teaching Advanced                  
 00203145  VERSION=LINUX x64     16:01:42  JUN 12, 2018 CP=     42.043

                                                                               


 
    ELEM MAT TYP REL ESY SEC        NODES
 
     451   6   1   1   0   1  12392 12390 12391 12391 49696 49694 12391 49695
     452   6   1   1   0   1  12389 12387 12388 12388 49693 49691 12388 49692
     453   6   1   1   0   1  12386 12384 12385 12385 49690 49688 12385 49689
     454   6   1   1   0   1  12383 12381 12382 12382 49687 49685 12382 49686
     455   6   1   1   0   1  12380 12378 12379 12379 49684 49682 12379 49683
     456   6   1   1   0   1  12377 12375 12376 12376 49681 49679 12376 49680
     457   6   1   1   0   1  12374 12372 12373 12373 49678 49676 12373 49677
     458   6   1   1   0   1  12371 12369 12370 12370 49675 49673 12370 49674
     459   6   1   1   0   1  12368 12366 12367 12367 49672 49670 12367 49671
     460   6   1   1   0   1  12365 12363 12364 12364 49669 49667 12364 49668
     461   6   1   1   0   1  12362 12360 12361 12361 49666 49664 12361 49665
     462   6   1   1   0   1  12359 12357 12358 12358 49663 49661 12358 49662
     463   6   1   1   0   1  12356 12354 12355 12355 49660 49658 12355 49659
     464   6   1   1   0   1  12353 12351 12352 12352 49657 49655 12352 49656
     465   6   1   1   0   1  12350 12348 12349 12349 49654 49652 12349 49653
     466   6   1   1   0   1  12347 12345 12346 12346 49651 49649 12346 49650
     467   6   1   1   0   1  12344 12342 12343 12343 49648 49646 12343 49647
     468   6   1   1   0   1  12341 12339 12340 12340 49645 49643 12340 49644
     469   6   1   1   0   1  12338 12336 12337 12337 49642 49640 12337 49641
     470   6   1   1   0   1  12335 12333 12334 12334 49639 49637 12334 49638
     471   6   1   1   0   1  12332 12330 12331 12331 49636 49634 12331 49635
     472   6   1   1   0   1  12329 12327 12328 12328 49633 49631 12328 49632
     473   6   1   1   0   1  12326 12324 12325 12325 49630 49628 12325 49629
     474   6   1   1   0   1  12323 12321 12322 12322 49627 49625 12322 49626
     475   6   1   1   0   1  12320 12318 12319 12319 49624 49622 12319 49623
     476   6   1   1   0   1  12317 12315 12316 12316 49621 49619 12316 49620
     477   6   1   1   0   1  12314 12312 12313 12313 49618 49616 12313 49617
     478   6   1   1   0   1  12311 12309 12310 12310 49615 49613 12310 49614
     479   6   1   1   0   1  12308 12306 12307 12307 49612 49610 12307 49611
     480   6   1   1   0   1  12305 12303 12304 12304 49609 49607 12304 49608
     481   6   1   1   0   1  12302 12300 12301 12301 49606 49604 12301 49605
     482   6   1   1   0   1  12299 12297 12298 12298 49603 49601 12298 49602
     483   6   1   1   0   1  12296 12294 12295 12295 49600 49598 12295 49599
     484   6   1   1   0   1  12293 12291 12292 12292 49597 49595 12292 49596
     485   6   1   1   0   1  12290 12288 12289 12289 49594 49592 12289 49593
     486   6   1   1   0   1  12287 12285 12286 12286 49591 49589 12286 49590
     487   6   1   1   0   1  12284 12282 12283 12283 49588 49586 12283 49587
     488   6   1   1   0   1  12281 12279 12280 12280 49585 49583 12280 49584
     489   6   1   1   0   1  12278 12276 12277 12277 49582 49580 12277 49581
     490   6   1   1   0   1  12275 12273 12274 12274 49579 49577 12274 49578
     491   6   1   1   0   1  12272 12270 12271 12271 49576 49574 12271 49575
     492   6   1   1   0   1  12269 12267 12268 12268 49573 49571 12268 49572
     493   6   1   1   0   1  12266 12264 12265 12265 49570 49568 12265 49569
     494   6   1   1   0   1  12263 12261 12262 12262 49567 49565 12262 49566
     495   6   1   1   0   1  12260 12258 12259 12259 49564 49562 12259 49563
     496   6   1   1   0   1  12257 12255 12256 12256 49561 49559 12256 49560
     497   6   1   1   0   1  12254 12252 12253 12253 49558 49556 12253 49557
     498   6   1   1   0   1  12251 12249 12250 12250 49555 49553 12250 49554
     499   6   1   1   0   1  12248 12246 12247 12247 49552 49550 12247 49551
     500   6   1   1   0   1  12245 12243 12244 12244 49549 49547 12244 49548

 *** ANSYS - ENGINEERING ANALYSIS SYSTEM  RELEASE Release 16.1     16.1     ***
 ANSYS Academic Teaching Advanced                  
 00203145  VERSION=LINUX x64     16:01:42  JUN 12, 2018 CP=     42.043

                                                                               


 
    ELEM MAT TYP REL ESY SEC        NODES
 
     501   6   1   1   0   1  12242 12240 12241 12241 49546 49544 12241 49545
     502   6   1   1   0   1  12239 12237 12238 12238 49543 49541 12238 49542
     503   6   1   1   0   1  12236 12234 12235 12235 49540 49538 12235 49539
     504   6   1   1   0   1  12233 12231 12232 12232 49537 49535 12232 49536
     505   6   1   1   0   1  12230 12228 12229 12229 49534 49532 12229 49533
     506   6   1   1   0   1  12227 12225 12226 12226 49531 49529 12226 49530
     507   6   1   1   0   1  12224 12222 12223 12223 49528 49526 12223 49527
     508   6   1   1   0   1  12221 12219 12220 12220 49525 49523 12220 49524
     509   6   1   1   0   1  12218 12216 12217 12217 49522 49520 12217 49521
     510   6   1   1   0   1  12215 12213 12214 12214 49519 49517 12214 49518
     511   6   1   1   0   1  12212 12210 12211 12211 49516 49514 12211 49515
     512   6   1   1   0   1  12209 12207 12208 12208 49513 49511 12208 49512
     513   6   1   1   0   1  12206 12204 12205 12205 49510 49508 12205 49509
     514   6   1   1   0   1  12203 12201 12202 12202 49507 49505 12202 49506
     515   6   1   1   0   1  12200 12198 12199 12199 49504 49502 12199 49503
     516   6   1   1   0   1  12197 12195 12196 12196 49501 49499 12196 49500
     517   6   1   1   0   1  12194 12192 12193 12193 49498 49496 12193 49497
     518   6   1   1   0   1  12191 12189 12190 12190 49495 49493 12190 49494
     519   6   1   1   0   1  12188 12186 12187 12187 49492 49490 12187 49491
     520   6   1   1   0   1  12185 12183 12184 12184 49489 49487 12184 49488
     521   6   1   1   0   1  12182 12180 12181 12181 49486 49484 12181 49485
     522   6   1   1   0   1  12179 12177 12178 12178 49483 49481 12178 49482
     523   3   1   1   0   1    344   360   343   343  1168  1201   343  1160
     524   3   1   1   0   1    344   357   360   360  1167   329   360  1168
     525   5   1   1   0   1    293   237   243   243  1399  1398   243  1389
     526   5   1   1   0   1    293   292   237   237   236  1397   237  1399
     527   6   1   1   0   1  12172 12170 12171 12171 49480 49478 12171 49479
     528   6   1   1   0   1  12163 12161 12162 12162 49477 49475 12162 49476
     529   6   1   1   0   1  12158 12156 12157 12157 49474 49472 12157 49473
     530   6   1   1   0   1  12153 12151 12152 12152 49471 49469 12152 49470
     531   6   1   1   0   1  12148 12146 12147 12147 49468 49466 12147 49467
     532   6   1   1   0   1  12141 12139 12140 12140 49465 49463 12140 49464
     533   6   1   1   0   1  12136 12134 12135 12135 49462 49460 12135 49461
     534   6   1   1   0   1  12129 12127 12128 12128 49459 49457 12128 49458
     535   6   1   1   0   1  12124 12122 12123 12123 49456 49454 12123 49455
     536   6   1   1   0   1  12119 12117 12118 12118 49453 49451 12118 49452
     537   6   1   1   0   1  12114 12112 12113 12113 49450 49448 12113 49449
     538   6   1   1   0   1  12107 12105 12106 12106 49447 49445 12106 49446
     539   6   1   1   0   1  12102 12100 12101 12101 49444 49442 12101 49443
     540   6   1   1   0   1  12095 12093 12094 12094 49441 49439 12094 49440
     541   6   1   1   0   1  12090 12088 12089 12089 49438 49436 12089 49437
     542   6   1   1   0   1  12085 12083 12084 12084 49435 49433 12084 49434
     543   6   1   1   0   1  12080 12078 12079 12079 49432 49430 12079 49431
     544   6   1   1   0   1  12073 12071 12072 12072 49429 49427 12072 49428
     545   6   1   1   0   1  12068 12066 12067 12067 49426 49424 12067 49425
     546   6   1   1   0   1  12061 12059 12060 12060 49423 49421 12060 49422
     547   6   1   1   0   1  12056 12054 12055 12055 49420 49418 12055 49419
     548   6   1   1   0   1  12051 12049 12050 12050 49417 49415 12050 49416
     549   6   1   1   0   1  12046 12044 12045 12045 49414 49412 12045 49413
     550   6   1   1   0   1  12039 12037 12038 12038 49411 49409 12038 49410

 *** ANSYS - ENGINEERING ANALYSIS SYSTEM  RELEASE Release 16.1     16.1     ***
 ANSYS Academic Teaching Advanced                  
 00203145  VERSION=LINUX x64     16:01:42  JUN 12, 2018 CP=     42.043

                                                                               


 
    ELEM MAT TYP REL ESY SEC        NODES
 
     551   6   1   1   0   1  12034 12032 12033 12033 49408 49406 12033 49407
     552   6   1   1   0   1  12027 12025 12026 12026 49405 49403 12026 49404
     553   6   1   1   0   1  12022 12020 12021 12021 49402 49400 12021 49401
     554   6   1   1   0   1  12017 12015 12016 12016 49399 49397 12016 49398
     555   6   1   1   0   1  12012 12010 12011 12011 49396 49394 12011 49395
     556   6   1   1   0   1  12005 12003 12004 12004 49393 49391 12004 49392
     557   6   1   1   0   1  12000 11998 11999 11999 49390 49388 11999 49389
     558   6   1   1   0   1  11993 11991 11992 11992 49387 49385 11992 49386
     559   6   1   1   0   1  11988 11986 11987 11987 49384 49382 11987 49383
     560   6   1   1   0   1  11983 11981 11982 11982 49381 49379 11982 49380
     561   6   1   1   0   1  11978 11976 11977 11977 49378 49376 11977 49377
     562   6   1   1   0   1  11971 11969 11970 11970 49375 49373 11970 49374
     563   6   1   1   0   1  11966 11964 11965 11965 49372 49370 11965 49371
     564   6   1   1   0   1  11959 11957 11958 11958 49369 49367 11958 49368
     565   6   1   1   0   1  11952 11950 11951 11951 49366 49364 11951 49365
     566   6   1   1   0   1  11945 11943 11944 11944 49363 49361 11944 49362
     567   6   1   1   0   1  11940 11938 11939 11939 49360 49358 11939 49359
     568   6   1   1   0   1  11933 11931 11932 11932 49357 49355 11932 49356
     569   6   1   1   0   1  11928 11926 11927 11927 49354 49352 11927 49353
     570   6   1   1   0   1  11921 11919 11920 11920 49351 49349 11920 49350
     571   6   1   1   0   1  11916 11914 11915 11915 49348 49346 11915 49347
     572   6   1   1   0   1  11911 11909 11910 11910 49345 49343 11910 49344
     573   6   1   1   0   1  11906 11904 11905 11905 49342 49340 11905 49341
     574   6   1   1   0   1  11899 11897 11898 11898 49339 49337 11898 49338
     575   6   1   1   0   1  11894 11892 11893 11893 49336 49334 11893 49335
     576   6   1   1   0   1  11887 11885 11886 11886 49333 49331 11886 49332
     577   6   1   1   0   1  11882 11880 11881 11881 49330 49328 11881 49329
     578   6   1   1   0   1  11875 11873 11874 11874 49327 49325 11874 49326
     579   6   1   1   0   1  11868 11866 11867 11867 49324 49322 11867 49323
     580   6   1   1   0   1  11863 11861 11862 11862 49321 49319 11862 49320
     581   6   1   1   0   1  11858 11856 11857 11857 49318 49316 11857 49317
     582   6   1   1   0   1  11853 11851 11852 11852 49315 49313 11852 49314
     583   6   1   1   0   1  11846 11844 11845 11845 49312 49310 11845 49311
     584   6   1   1   0   1  11841 11839 11840 11840 49309 49307 11840 49308
     585   6   1   1   0   1  11834 11832 11833 11833 49306 49304 11833 49305
     586   6   1   1   0   1  11829 11827 11828 11828 49303 49301 11828 49302
     587   6   1   1   0   1  11824 11822 11823 11823 49300 49298 11823 49299
     588   6   1   1   0   1  11819 11817 11818 11818 49297 49295 11818 49296
     589   6   1   1   0   1  11812 11810 11811 11811 49294 49292 11811 49293
     590   6   1   1   0   1  11807 11805 11806 11806 49291 49289 11806 49290
     591   6   1   1   0   1  11800 11798 11799 11799 49288 49286 11799 49287
     592   6   1   1   0   1  11795 11793 11794 11794 49285 49283 11794 49284
     593   6   1   1   0   1  11790 11788 11789 11789 49282 49280 11789 49281
     594   6   1   1   0   1  11785 11783 11784 11784 49279 49277 11784 49278
     595   6   1   1   0   1  11778 11776 11777 11777 49276 49274 11777 49275
     596   6   1   1   0   1  11773 11771 11772 11772 49273 49271 11772 49272
     597   6   1   1   0   1  11766 11764 11765 11765 49270 49268 11765 49269
     598   6   1   1   0   1  11761 11759 11760 11760 49267 49265 11760 49266
     599   6   1   1   0   1  11756 11754 11755 11755 49264 49262 11755 49263
     600   6   1   1   0   1  11751 11749 11750 11750 49261 49259 11750 49260

 *** ANSYS - ENGINEERING ANALYSIS SYSTEM  RELEASE Release 16.1     16.1     ***
 ANSYS Academic Teaching Advanced                  
 00203145  VERSION=LINUX x64     16:01:42  JUN 12, 2018 CP=     42.044

                                                                               


 
    ELEM MAT TYP REL ESY SEC        NODES
 
     601   6   1   1   0   1  11744 11742 11743 11743 49258 49256 11743 49257
     602   6   1   1   0   1  11737 11735 11736 11736 49255 49253 11736 49254
     603   6   1   1   0   1  11728 11726 11727 11727 49252 49250 11727 49251
     604   6   1   1   0   1  11723 11721 11722 11722 49249 49247 11722 49248
     605   6   1   1   0   1  11718 11716 11717 11717 49246 49244 11717 49245
     606   6   1   1   0   1  11713 11711 11712 11712 49243 49241 11712 49242
     607   6   1   1   0   1  11706 11704 11705 11705 49240 49238 11705 49239
     608   6   1   1   0   1  11701 11699 11700 11700 49237 49235 11700 49236
     609   6   1   1   0   1  11694 11692 11693 11693 49234 49232 11693 49233
     610   6   1   1   0   1  11689 11687 11688 11688 49231 49229 11688 49230
     611   6   1   1   0   1  11684 11682 11683 11683 49228 49226 11683 49227
     612   6   1   1   0   1  11679 11677 11678 11678 49225 49223 11678 49224
     613   6   1   1   0   1  11672 11670 11671 11671 49222 49220 11671 49221
     614   6   1   1   0   1  11667 11665 11666 11666 49219 49217 11666 49218
     615   6   1   1   0   1  11660 11658 11659 11659 49216 49214 11659 49215
     616   6   1   1   0   1  11655 11653 11654 11654 49213 49211 11654 49212
     617   6   1   1   0   1  11650 11648 11649 11649 49210 49208 11649 49209
     618   6   1   1   0   1  11645 11643 11644 11644 49207 49205 11644 49206
     619   6   1   1   0   1  11638 11636 11637 11637 49204 49202 11637 49203
     620   6   1   1   0   1  11633 11631 11632 11632 49201 49199 11632 49200
     621   6   1   1   0   1  11626 11624 11625 11625 49198 49196 11625 49197
     622   6   1   1   0   1  11621 11619 11620 11620 49195 49193 11620 49194
     623   6   1   1   0   1  11616 11614 11615 11615 49192 49190 11615 49191
     624   6   1   1   0   1  11611 11609 11610 11610 49189 49187 11610 49188
     625   6   1   1   0   1  11604 11602 11603 11603 49186 49184 11603 49185
     626   6   1   1   0   1  11599 11597 11598 11598 49183 49181 11598 49182
     627   6   1   1   0   1  11592 11590 11591 11591 49180 49178 11591 49179
     628   6   1   1   0   1  11587 11585 11586 11586 49177 49175 11586 49176
     629   6   1   1   0   1  11582 11580 11581 11581 49174 49172 11581 49173
     630   6   1   1   0   1  11577 11575 11576 11576 49171 49169 11576 49170
     631   6   1   1   0   1  11568 11566 11567 11567 49168 49166 11567 49167
     632   6   1   1   0   1  11561 11559 11560 11560 49165 49163 11560 49164
     633   6   1   1   0   1  11554 11552 11553 11553 49162 49160 11553 49161
     634   6   1   1   0   1  11549 11547 11548 11548 49159 49157 11548 49158
     635   6   1   1   0   1  11544 11542 11543 11543 49156 49154 11543 49155
     636   6   1   1   0   1  11539 11537 11538 11538 49153 49151 11538 49152
     637   6   1   1   0   1  11532 11530 11531 11531 49150 49148 11531 49149
     638   6   1   1   0   1  11525 11523 11524 11524 49147 49145 11524 49146
     639   6   1   1   0   1  11516 11514 11515 11515 49144 49142 11515 49143
     640   6   1   1   0   1  11511 11509 11510 11510 49141 49139 11510 49140
     641   6   1   1   0   1  11506 11504 11505 11505 49138 49136 11505 49137
     642   6   1   1   0   1  11501 11499 11500 11500 49135 49133 11500 49134
     643   6   1   1   0   1  11494 11492 11493 11493 49132 49130 11493 49131
     644   6   1   1   0   1  11489 11487 11488 11488 49129 49127 11488 49128
     645   6   1   1   0   1  11482 11480 11481 11481 49126 49124 11481 49125
     646   6   1   1   0   1  11475 11473 11474 11474 49123 49121 11474 49122
     647   6   1   1   0   1  11468 11466 11467 11467 49120 49118 11467 49119
     648   6   1   1   0   1  11463 11461 11462 11462 49117 49115 11462 49116
     649   6   1   1   0   1  11456 11454 11455 11455 49114 49112 11455 49113
     650   6   1   1   0   1  11449 11447 11448 11448 49111 49109 11448 49110

 *** ANSYS - ENGINEERING ANALYSIS SYSTEM  RELEASE Release 16.1     16.1     ***
 ANSYS Academic Teaching Advanced                  
 00203145  VERSION=LINUX x64     16:01:42  JUN 12, 2018 CP=     42.044

                                                                               


 
    ELEM MAT TYP REL ESY SEC        NODES
 
     651   6   1   1   0   1  11440 11438 11439 11439 49108 49106 11439 49107
     652   6   1   1   0   1  11433 11431 11432 11432 49105 49103 11432 49104
     653   6   1   1   0   1  11426 11424 11425 11425 49102 49100 11425 49101
     654   6   1   1   0   1  11417 11415 11416 11416 49099 49097 11416 49098
     655   6   1   1   0   1  11412 11410 11411 11411 49096 49094 11411 49095
     656   6   1   1   0   1  11407 11405 11406 11406 49093 49091 11406 49092
     657   6   1   1   0   1  11402 11400 11401 11401 49090 49088 11401 49089
     658   6   1   1   0   1  11395 11393 11394 11394 49087 49085 11394 49086
     659   6   1   1   0   1  11390 11388 11389 11389 49084 49082 11389 49083
     660   6   1   1   0   1  11383 11381 11382 11382 49081 49079 11382 49080
     661   6   1   1   0   1  11376 11374 11375 11375 49078 49076 11375 49077
     662   6   1   1   0   1  11367 11365 11366 11366 49075 49073 11366 49074
     663   6   1   1   0   1  11360 11358 11359 11359 49072 49070 11359 49071
     664   6   1   1   0   1  11353 11351 11352 11352 49069 49067 11352 49068
     665   6   1   1   0   1  11348 11346 11347 11347 49066 49064 11347 49065
     666   6   1   1   0   1  11341 11339 11340 11340 49063 49061 11340 49062
     667   6   1   1   0   1  11334 11332 11333 11333 49060 49058 11333 49059
     668   6   1   1   0   1  11327 11325 11326 11326 49057 49055 11326 49056
     669   6   1   1   0   1  11322 11320 11321 11321 49054 49052 11321 49053
     670   6   1   1   0   1  11315 11313 11314 11314 49051 49049 11314 49050
     671   6   1   1   0   1  11310 11308 11309 11309 49048 49046 11309 49047
     672   6   1   1   0   1  11303 11301 11302 11302 49045 49043 11302 49044
     673   6   1   1   0   1  11298 11296 11297 11297 49042 49040 11297 49041
     674   6   1   1   0   1  11293 11291 11292 11292 49039 49037 11292 49038
     675   6   1   1   0   1  11288 11286 11287 11287 49036 49034 11287 49035
     676   6   1   1   0   1  11281 11279 11280 11280 49033 49031 11280 49032
     677   6   1   1   0   1  11276 11274 11275 11275 49030 49028 11275 49029
     678   6   1   1   0   1  11269 11267 11268 11268 49027 49025 11268 49026
     679   6   1   1   0   1  11264 11262 11263 11263 49024 49022 11263 49023
     680   6   1   1   0   1  11259 11257 11258 11258 49021 49019 11258 49020
     681   6   1   1   0   1  11254 11252 11253 11253 49018 49016 11253 49017
     682   6   1   1   0   1  11247 11245 11246 11246 49015 49013 11246 49014
     683   6   1   1   0   1  11242 11240 11241 11241 49012 49010 11241 49011
     684   6   1   1   0   1  11235 11233 11234 11234 49009 49007 11234 49008
     685   6   1   1   0   1  11230 11228 11229 11229 49006 49004 11229 49005
     686   6   1   1   0   1  11225 11223 11224 11224 49003 49001 11224 49002
     687   6   1   1   0   1  11220 11218 11219 11219 49000 48998 11219 48999
     688   6   1   1   0   1  11213 11211 11212 11212 48997 48995 11212 48996
     689   6   1   1   0   1  11208 11206 11207 11207 48994 48992 11207 48993
     690   6   1   1   0   1  11201 11199 11200 11200 48991 48989 11200 48990
     691   6   1   1   0   1  11196 11194 11195 11195 48988 48986 11195 48987
     692   6   1   1   0   1  11189 11187 11188 11188 48985 48983 11188 48984
     693   6   1   1   0   1  11182 11180 11181 11181 48982 48980 11181 48981
     694   6   1   1   0   1  11175 11173 11174 11174 48979 48977 11174 48978
     695   6   1   1   0   1  11170 11168 11169 11169 48976 48974 11169 48975
     696   6   1   1   0   1  11163 11161 11162 11162 48973 48971 11162 48972
     697   6   1   1   0   1  11158 11156 11157 11157 48970 48968 11157 48969
     698   6   1   1   0   1  11153 11151 11152 11152 48967 48965 11152 48966
     699   6   1   1   0   1  11148 11146 11147 11147 48964 48962 11147 48963
     700   6   1   1   0   1  11141 11139 11140 11140 48961 48959 11140 48960

 *** ANSYS - ENGINEERING ANALYSIS SYSTEM  RELEASE Release 16.1     16.1     ***
 ANSYS Academic Teaching Advanced                  
 00203145  VERSION=LINUX x64     16:01:42  JUN 12, 2018 CP=     42.045

                                                                               


 
    ELEM MAT TYP REL ESY SEC        NODES
 
     701   6   1   1   0   1  11134 11132 11133 11133 48958 48956 11133 48957
     702   6   1   1   0   1  11125 11123 11124 11124 48955 48953 11124 48954
     703   6   1   1   0   1  11120 11118 11119 11119 48952 48950 11119 48951
     704   6   1   1   0   1  11113 11111 11112 11112 48949 48947 11112 48948
     705   6   1   1   0   1  11106 11104 11105 11105 48946 48944 11105 48945
     706   6   1   1   0   1  11097 11095 11096 11096 48943 48941 11096 48942
     707   6   1   1   0   1  11090 11088 11089 11089 48940 48938 11089 48939
     708   6   1   1   0   1  11083 11081 11082 11082 48937 48935 11082 48936
     709   6   1   1   0   1  11074 11072 11073 11073 48934 48932 11073 48933
     710   6   1   1   0   1  11065 11063 11064 11064 48931 48929 11064 48930
     711   6   1   1   0   1  11056 11054 11055 11055 48928 48926 11055 48927
     712   6   1   1   0   1  11049 11047 11048 11048 48925 48923 11048 48924
     713   6   1   1   0   1  11042 11040 11041 11041 48922 48920 11041 48921
     714   6   1   1   0   1  11037 11035 11036 11036 48919 48917 11036 48918
     715   6   1   1   0   1  11028 11026 11027 11027 48916 48914 11027 48915
     716   6   1   1   0   1  11021 11019 11020 11020 48913 48911 11020 48912
     717   6   1   1   0   1  11014 11012 11013 11013 48910 48908 11013 48909
     718   6   1   1   0   1  11005 11003 11004 11004 48907 48905 11004 48906
     719   6   1   1   0   1  10996 10994 10995 10995 48904 48902 10995 48903
     720   6   1   1   0   1  10987 10985 10986 10986 48901 48899 10986 48900
     721   6   1   1   0   1  10982 10980 10981 10981 48898 48896 10981 48897
     722   6   1   1   0   1  10975 10973 10974 10974 48895 48893 10974 48894
     723   6   1   1   0   1  10968 10966 10967 10967 48892 48890 10967 48891
     724   6   1   1   0   1  10961 10959 10960 10960 48889 48887 10960 48888
     725   6   1   1   0   1  10956 10954 10955 10955 48886 48884 10955 48885
     726   6   1   1   0   1  10949 10947 10948 10948 48883 48881 10948 48882
     727   6   1   1   0   1  10940 10938 10939 10939 48880 48878 10939 48879
     728   6   1   1   0   1  10931 10929 10930 10930 48877 48875 10930 48876
     729   6   1   1   0   1  10922 10920 10921 10921 48874 48872 10921 48873
     730   6   1   1   0   1  10917 10915 10916 10916 48871 48869 10916 48870
     731   6   1   1   0   1  10910 10908 10909 10909 48868 48866 10909 48867
     732   6   1   1   0   1  10903 10901 10902 10902 48865 48863 10902 48864
     733   6   1   1   0   1  10896 10894 10895 10895 48862 48860 10895 48861
     734   6   1   1   0   1  10891 10889 10890 10890 48859 48857 10890 48858
     735   6   1   1   0   1  10884 10882 10883 10883 48856 48854 10883 48855
     736   6   1   1   0   1  10875 10873 10874 10874 48853 48851 10874 48852
     737   6   1   1   0   1  10868 10866 10867 10867 48850 48848 10867 48849
     738   6   1   1   0   1  10861 10859 10860 10860 48847 48845 10860 48846
     739   6   1   1   0   1  10856 10854 10855 10855 48844 48842 10855 48843
     740   6   1   1   0   1  10851 10849 10850 10850 48841 48839 10850 48840
     741   6   1   1   0   1  10846 10844 10845 10845 48838 48836 10845 48837
     742   6   1   1   0   1  10839 10837 10838 10838 48835 48833 10838 48834
     743   6   1   1   0   1  10830 10828 10829 10829 48832 48830 10829 48831
     744   6   1   1   0   1  10823 10821 10822 10822 48829 48827 10822 48828
     745   6   1   1   0   1  10814 10812 10813 10813 48826 48824 10813 48825
     746   6   1   1   0   1  10805 10803 10804 10804 48823 48821 10804 48822
     747   6   1   1   0   1  10798 10796 10797 10797 48820 48818 10797 48819
     748   6   1   1   0   1  10793 10791 10792 10792 48817 48815 10792 48816
     749   6   1   1   0   1  10786 10784 10785 10785 48814 48812 10785 48813
     750   6   1   1   0   1  10779 10777 10778 10778 48811 48809 10778 48810

 *** ANSYS - ENGINEERING ANALYSIS SYSTEM  RELEASE Release 16.1     16.1     ***
 ANSYS Academic Teaching Advanced                  
 00203145  VERSION=LINUX x64     16:01:42  JUN 12, 2018 CP=     42.045

                                                                               


 
    ELEM MAT TYP REL ESY SEC        NODES
 
     751   6   1   1   0   1  10774 10772 10773 10773 48808 48806 10773 48807
     752   6   1   1   0   1  10767 10765 10766 10766 48805 48803 10766 48804
     753   6   1   1   0   1  10758 10756 10757 10757 48802 48800 10757 48801
     754   6   1   1   0   1  10751 10749 10750 10750 48799 48797 10750 48798
     755   6   1   1   0   1  10744 10742 10743 10743 48796 48794 10743 48795
     756   6   1   1   0   1  10739 10737 10738 10738 48793 48791 10738 48792
     757   6   1   1   0   1  10734 10732 10733 10733 48790 48788 10733 48789
     758   6   1   1   0   1  10729 10727 10728 10728 48787 48785 10728 48786
     759   6   1   1   0   1  10720 10718 10719 10719 48784 48782 10719 48783
     760   6   1   1   0   1  10713 10711 10712 10712 48781 48779 10712 48780
     761   6   1   1   0   1  10706 10704 10705 10705 48778 48776 10705 48777
     762   6   1   1   0   1  10699 10697 10698 10698 48775 48773 10698 48774
     763   6   1   1   0   1  10692 10690 10691 10691 48772 48770 10691 48771
     764   6   1   1   0   1  10687 10685 10686 10686 48769 48767 10686 48768
     765   6   1   1   0   1  10680 10678 10679 10679 48766 48764 10679 48765
     766   6   1   1   0   1  10673 10671 10672 10672 48763 48761 10672 48762
     767   6   1   1   0   1  10668 10666 10667 10667 48760 48758 10667 48759
     768   6   1   1   0   1  10661 10659 10660 10660 48757 48755 10660 48756
     769   6   1   1   0   1  10656 10654 10655 10655 48754 48752 10655 48753
     770   6   1   1   0   1  10649 10647 10648 10648 48751 48749 10648 48750
     771   6   1   1   0   1  10640 10638 10639 10639 48748 48746 10639 48747
     772   6   1   1   0   1  10633 10631 10632 10632 48745 48743 10632 48744
     773   6   1   1   0   1  10626 10624 10625 10625 48742 48740 10625 48741
     774   6   1   1   0   1  10617 10615 10616 10616 48739 48737 10616 48738
     775   6   1   1   0   1  10610 10608 10609 10609 48736 48734 10609 48735
     776   6   1   1   0   1  10603 10601 10602 10602 48733 48731 10602 48732
     777   6   1   1   0   1  10594 10592 10593 10593 48730 48728 10593 48729
     778   6   1   1   0   1  10587 10585 10586 10586 48727 48725 10586 48726
     779   6   1   1   0   1  10580 10578 10579 10579 48724 48722 10579 48723
     780   6   1   1   0   1  10573 10571 10572 10572 48721 48719 10572 48720
     781   6   1   1   0   1  10568 10566 10567 10567 48718 48716 10567 48717
     782   6   1   1   0   1  10561 10559 10560 10560 48715 48713 10560 48714
     783   6   1   1   0   1  10554 10552 10553 10553 48712 48710 10553 48711
     784   6   1   1   0   1  10547 10545 10546 10546 48709 48707 10546 48708
     785   6   1   1   0   1  10542 10540 10541 10541 48706 48704 10541 48705
     786   6   1   1   0   1  10533 10531 10532 10532 48703 48701 10532 48702
     787   6   1   1   0   1  10526 10524 10525 10525 48700 48698 10525 48699
     788   6   1   1   0   1  10519 10517 10518 10518 48697 48695 10518 48696
     789   6   1   1   0   1  10512 10510 10511 10511 48694 48692 10511 48693
     790   6   1   1   0   1  10507 10505 10506 10506 48691 48689 10506 48690
     791   6   1   1   0   1  10500 10498 10499 10499 48688 48686 10499 48687
     792   6   1   1   0   1  10491 10489 10490 10490 48685 48683 10490 48684
     793   6   1   1   0   1  10484 10482 10483 10483 48682 48680 10483 48681
     794   6   1   1   0   1  10477 10475 10476 10476 48679 48677 10476 48678
     795   6   1   1   0   1  10468 10466 10467 10467 48676 48674 10467 48675
     796   6   1   1   0   1  10461 10459 10460 10460 48673 48671 10460 48672
     797   6   1   1   0   1  10454 10452 10453 10453 48670 48668 10453 48669
     798   6   1   1   0   1  10447 10445 10446 10446 48667 48665 10446 48666
     799   6   1   1   0   1  10440 10438 10439 10439 48664 48662 10439 48663
     800   6   1   1   0   1  10435 10433 10434 10434 48661 48659 10434 48660

 *** ANSYS - ENGINEERING ANALYSIS SYSTEM  RELEASE Release 16.1     16.1     ***
 ANSYS Academic Teaching Advanced                  
 00203145  VERSION=LINUX x64     16:01:42  JUN 12, 2018 CP=     42.045

                                                                               


 
    ELEM MAT TYP REL ESY SEC        NODES
 
     801   6   1   1   0   1  10428 10426 10427 10427 48658 48656 10427 48657
     802   6   1   1   0   1  10421 10419 10420 10420 48655 48653 10420 48654
     803   6   1   1   0   1  10416 10414 10415 10415 48652 48650 10415 48651
     804   6   1   1   0   1  10409 10407 10408 10408 48649 48647 10408 48648
     805   6   1   1   0   1  10402 10400 10401 10401 48646 48644 10401 48645
     806   6   1   1   0   1  10397 10395 10396 10396 48643 48641 10396 48642
     807   6   1   1   0   1  10390 10388 10389 10389 48640 48638 10389 48639
     808   6   1   1   0   1  10383 10381 10382 10382 48637 48635 10382 48636
     809   6   1   1   0   1  10378 10376 10377 10377 48634 48632 10377 48633
     810   6   1   1   0   1  10371 10369 10370 10370 48631 48629 10370 48630
     811   6   1   1   0   1  10364 10362 10363 10363 48628 48626 10363 48627
     812   6   1   1   0   1  10359 10357 10358 10358 48625 48623 10358 48624
     813   6   1   1   0   1  10352 10350 10351 10351 48622 48620 10351 48621
     814   6   1   1   0   1  10345 10343 10344 10344 48619 48617 10344 48618
     815   6   1   1   0   1  10340 10338 10339 10339 48616 48614 10339 48615
     816   6   1   1   0   1  10333 10331 10332 10332 48613 48611 10332 48612
     817   6   1   1   0   1  10328 10326 10327 10327 48610 48608 10327 48609
     818   6   1   1   0   1  10321 10319 10320 10320 48607 48605 10320 48606
     819   6   1   1   0   1  10314 10312 10313 10313 48604 48602 10313 48603
     820   6   1   1   0   1  10307 10305 10306 10306 48601 48599 10306 48600
     821   6   1   1   0   1  10302 10300 10301 10301 48598 48596 10301 48597
     822   6   1   1   0   1  10295 10293 10294 10294 48595 48593 10294 48594
     823   6   1   1   0   1  10288 10286 10287 10287 48592 48590 10287 48591
     824   6   1   1   0   1  10279 10277 10278 10278 48589 48587 10278 48588
     825   6   1   1   0   1  10272 10270 10271 10271 48586 48584 10271 48585
     826   6   1   1   0   1  10263 10261 10262 10262 48583 48581 10262 48582
     827   6   1   1   0   1  10256 10254 10255 10255 48580 48578 10255 48579
     828   6   1   1   0   1  10247 10245 10246 10246 48577 48575 10246 48576
     829   6   1   1   0   1  10240 10238 10239 10239 48574 48572 10239 48573
     830   6   1   1   0   1  10233 10231 10232 10232 48571 48569 10232 48570
     831   6   1   1   0   1  10226 10224 10225 10225 48568 48566 10225 48567
     832   6   1   1   0   1  10219 10217 10218 10218 48565 48563 10218 48564
     833   6   1   1   0   1  10214 10212 10213 10213 48562 48560 10213 48561
     834   6   1   1   0   1  10207 10205 10206 10206 48559 48557 10206 48558
     835   6   1   1   0   1  10200 10198 10199 10199 48556 48554 10199 48555
     836   6   1   1   0   1  10195 10193 10194 10194 48553 48551 10194 48552
     837   6   1   1   0   1  10188 10186 10187 10187 48550 48548 10187 48549
     838   6   1   1   0   1  10183 10181 10182 10182 48547 48545 10182 48546
     839   6   1   1   0   1  10176 10174 10175 10175 48544 48542 10175 48543
     840   6   1   1   0   1  10167 10165 10166 10166 48541 48539 10166 48540
     841   6   1   1   0   1  10160 10158 10159 10159 48538 48536 10159 48537
     842   6   1   1   0   1  10153 10151 10152 10152 48535 48533 10152 48534
     843   6   1   1   0   1  10146 10144 10145 10145 48532 48530 10145 48531
     844   6   1   1   0   1  10141 10139 10140 10140 48529 48527 10140 48528
     845   6   1   1   0   1  10134 10132 10133 10133 48526 48524 10133 48525
     846   6   1   1   0   1  10125 10123 10124 10124 48523 48521 10124 48522
     847   6   1   1   0   1  10118 10116 10117 10117 48520 48518 10117 48519
     848   6   1   1   0   1  10111 10109 10110 10110 48517 48515 10110 48516
     849   6   1   1   0   1  10104 10102 10103 10103 48514 48512 10103 48513
     850   6   1   1   0   1  10099 10097 10098 10098 48511 48509 10098 48510

 *** ANSYS - ENGINEERING ANALYSIS SYSTEM  RELEASE Release 16.1     16.1     ***
 ANSYS Academic Teaching Advanced                  
 00203145  VERSION=LINUX x64     16:01:42  JUN 12, 2018 CP=     42.046

                                                                               


 
    ELEM MAT TYP REL ESY SEC        NODES
 
     851   6   1   1   0   1  10092 10090 10091 10091 48508 48506 10091 48507
     852   6   1   1   0   1  10083 10081 10082 10082 48505 48503 10082 48504
     853   6   1   1   0   1  10076 10074 10075 10075 48502 48500 10075 48501
     854   6   1   1   0   1  10069 10067 10068 10068 48499 48497 10068 48498
     855   6   1   1   0   1  10060 10058 10059 10059 48496 48494 10059 48495
     856   6   1   1   0   1  10053 10051 10052 10052 48493 48491 10052 48492
     857   6   1   1   0   1  10046 10044 10045 10045 48490 48488 10045 48489
     858   6   1   1   0   1  10037 10035 10036 10036 48487 48485 10036 48486
     859   6   1   1   0   1  10030 10028 10029 10029 48484 48482 10029 48483
     860   6   1   1   0   1  10023 10021 10022 10022 48481 48479 10022 48480
     861   6   1   1   0   1  10014 10012 10013 10013 48478 48476 10013 48477
     862   6   1   1   0   1  10007 10005 10006 10006 48475 48473 10006 48474
     863   6   1   1   0   1  10000  9998  9999  9999 48472 48470  9999 48471
     864   6   1   1   0   1   9991  9989  9990  9990 48469 48467  9990 48468
     865   6   1   1   0   1   9984  9982  9983  9983 48466 48464  9983 48465
     866   6   1   1   0   1   9977  9975  9976  9976 48463 48461  9976 48462
     867   6   1   1   0   1   9968  9966  9967  9967 48460 48458  9967 48459
     868   6   1   1   0   1   9961  9959  9960  9960 48457 48455  9960 48456
     869   6   1   1   0   1   9954  9952  9953  9953 48454 48452  9953 48453
     870   6   1   1   0   1   9945  9943  9944  9944 48451 48449  9944 48450
     871   6   1   1   0   1   9938  9936  9937  9937 48448 48446  9937 48447
     872   6   1   1   0   1   9931  9929  9930  9930 48445 48443  9930 48444
     873   6   1   1   0   1   9924  9922  9923  9923 48442 48440  9923 48441
     874   6   1   1   0   1   9917  9915  9916  9916 48439 48437  9916 48438
     875   6   1   1   0   1   9912  9910  9911  9911 48436 48434  9911 48435
     876   6   1   1   0   1   9903  9901  9902  9902 48433 48431  9902 48432
     877   6   1   1   0   1   9896  9894  9895  9895 48430 48428  9895 48429
     878   6   1   1   0   1   9889  9887  9888  9888 48427 48425  9888 48426
     879   6   1   1   0   1   9882  9880  9881  9881 48424 48422  9881 48423
     880   6   1   1   0   1   9877  9875  9876  9876 48421 48419  9876 48420
     881   6   1   1   0   1   9870  9868  9869  9869 48418 48416  9869 48417
     882   6   1   1   0   1   9863  9861  9862  9862 48415 48413  9862 48414
     883   6   1   1   0   1   9858  9856  9857  9857 48412 48410  9857 48411
     884   6   1   1   0   1   9851  9849  9850  9850 48409 48407  9850 48408
     885   6   1   1   0   1   9842  9840  9841  9841 48406 48404  9841 48405
     886   6   1   1   0   1   9835  9833  9834  9834 48403 48401  9834 48402
     887   6   1   1   0   1   9828  9826  9827  9827 48400 48398  9827 48399
     888   6   1   1   0   1   9819  9817  9818  9818 48397 48395  9818 48396
     889   6   1   1   0   1   9812  9810  9811  9811 48394 48392  9811 48393
     890   6   1   1   0   1   9805  9803  9804  9804 48391 48389  9804 48390
     891   6   1   1   0   1   9796  9794  9795  9795 48388 48386  9795 48387
     892   6   1   1   0   1   9789  9787  9788  9788 48385 48383  9788 48384
     893   6   1   1   0   1   9782  9780  9781  9781 48382 48380  9781 48381
     894   6   1   1   0   1   9775  9773  9774  9774 48379 48377  9774 48378
     895   6   1   1   0   1   9768  9766  9767  9767 48376 48374  9767 48375
     896   6   1   1   0   1   9763  9761  9762  9762 48373 48371  9762 48372
     897   6   1   1   0   1   9756  9754  9755  9755 48370 48368  9755 48369
     898   6   1   1   0   1   9747  9745  9746  9746 48367 48365  9746 48366
     899   6   1   1   0   1   9740  9738  9739  9739 48364 48362  9739 48363
     900   6   1   1   0   1   9733  9731  9732  9732 48361 48359  9732 48360

 *** ANSYS - ENGINEERING ANALYSIS SYSTEM  RELEASE Release 16.1     16.1     ***
 ANSYS Academic Teaching Advanced                  
 00203145  VERSION=LINUX x64     16:01:42  JUN 12, 2018 CP=     42.047

                                                                               


 
    ELEM MAT TYP REL ESY SEC        NODES
 
     901   6   1   1   0   1   9726  9724  9725  9725 48358 48356  9725 48357
     902   6   1   1   0   1   9717  9715  9716  9716 48355 48353  9716 48354
     903   6   1   1   0   1   9710  9708  9709  9709 48352 48350  9709 48351
     904   6   1   1   0   1   9703  9701  9702  9702 48349 48347  9702 48348
     905   6   1   1   0   1   9698  9696  9697  9697 48346 48344  9697 48345
     906   6   1   1   0   1   9691  9689  9690  9690 48343 48341  9690 48342
     907   6   1   1   0   1   9684  9682  9683  9683 48340 48338  9683 48339
     908   6   1   1   0   1   9679  9677  9678  9678 48337 48335  9678 48336
     909   6   1   1   0   1   9672  9670  9671  9671 48334 48332  9671 48333
     910   6   1   1   0   1   9665  9663  9664  9664 48331 48329  9664 48330
     911   6   1   1   0   1   9660  9658  9659  9659 48328 48326  9659 48327
     912   6   1   1   0   1   9653  9651  9652  9652 48325 48323  9652 48324
     913   6   1   1   0   1   9646  9644  9645  9645 48322 48320  9645 48321
     914   6   1   1   0   1   9641  9639  9640  9640 48319 48317  9640 48318
     915   6   1   1   0   1   9634  9632  9633  9633 48316 48314  9633 48315
     916   6   1   1   0   1   9627  9625  9626  9626 48313 48311  9626 48312
     917   6   1   1   0   1   9622  9620  9621  9621 48310 48308  9621 48309
     918   6   1   1   0   1   9615  9613  9614  9614 48307 48305  9614 48306
     919   6   1   1   0   1   9608  9606  9607  9607 48304 48302  9607 48303
     920   6   1   1   0   1   9603  9601  9602  9602 48301 48299  9602 48300
     921   6   1   1   0   1   9596  9594  9595  9595 48298 48296  9595 48297
     922   6   1   1   0   1   9589  9587  9588  9588 48295 48293  9588 48294
     923   6   1   1   0   1   9584  9582  9583  9583 48292 48290  9583 48291
     924   6   1   1   0   1   9577  9575  9576  9576 48289 48287  9576 48288
     925   6   1   1   0   1   9570  9568  9569  9569 48286 48284  9569 48285
     926   6   1   1   0   1   9565  9563  9564  9564 48283 48281  9564 48282
     927   6   1   1   0   1   9558  9556  9557  9557 48280 48278  9557 48279
     928   6   1   1   0   1   9551  9549  9550  9550 48277 48275  9550 48276
     929   6   1   1   0   1   9546  9544  9545  9545 48274 48272  9545 48273
     930   6   1   1   0   1   9539  9537  9538  9538 48271 48269  9538 48270
     931   6   1   1   0   1   9532  9530  9531  9531 48268 48266  9531 48267
     932   6   1   1   0   1   9527  9525  9526  9526 48265 48263  9526 48264
     933   6   1   1   0   1   9520  9518  9519  9519 48262 48260  9519 48261
     934   6   1   1   0   1   9513  9511  9512  9512 48259 48257  9512 48258
     935   6   1   1   0   1   9508  9506  9507  9507 48256 48254  9507 48255
     936   6   1   1   0   1   9503  9501  9502  9502 48253 48251  9502 48252
     937   6   1   1   0   1   9498  9496  9497  9497 48250 48248  9497 48249
     938   6   1   1   0   1   9493  9491  9492  9492 48247 48245  9492 48246
     939   6   1   1   0   1   9484  9482  9483  9483 48244 48242  9483 48243
     940   6   1   1   0   1   9477  9475  9476  9476 48241 48239  9476 48240
     941   6   1   1   0   1   9470  9468  9469  9469 48238 48236  9469 48237
     942   6   1   1   0   1   9461  9459  9460  9460 48235 48233  9460 48234
     943   6   1   1   0   1   9454  9452  9453  9453 48232 48230  9453 48231
[...]
 ANSYS Academic Teaching Advanced                  
 00203145  VERSION=LINUX x64     16:01:42  JUN 12, 2018 CP=     42.273

                                                                               


 
    ELEM MAT TYP REL ESY SEC        NODES
 
   24801   5   1   1   0   1   1315  3992  3995  3995 13907 13903  3995 13906
   24802   5   1   1   0   1  13712  3995 13719 13719 13905 13902 13719 13713
   24803   5   1   1   0   1  13764 13755  3986  3986 13760 13892  3986 13899
   24804   5   1   1   0   1   1311  3986  3989  3989 13898 13894  3989 13897
   24805   5   1   1   0   1  13747  3989 13755 13755 13896 13893 13755 13748
   24806   5   1   1   0   1   1307  3979  3985  3985 13872 13885  3985 13891
   24807   5   1   1   0   1  13764  3985 13774 13774 13890 13887 13774 13769
   24808   5   1   1   0   1  13783 13774  3979  3979 13775 13886  3979 13871
   24809   5   1   1   0   1   1304  3982  3975  3975 13884 13876  3975 13883
   24810   5   1   1   0   1  13800  3975 13810 13810 13882 13878 13810 13805
   24811   5   1   1   0   1  13818 13810  3982  3982 13811 13877  3982 13879
   24812   5   1   1   0   1  13800 13791  3976  3976 13796 13867  3976 13874
   24813   5   1   1   0   1   1307  3976  3979  3979 13873 13869  3979 13872
   24814   5   1   1   0   1  13783  3979 13791 13791 13871 13868 13791 13784
   24815   5   1   1   0   1  13834 13825  3968  3968 13830 13858  3968 13865
   24816   5   1   1   0   1   1303  3968  3972  3972 13864 13860  3972 13863
   24817   5   1   1   0   1  13818  3972 13825 13825 13862 13859 13825 13819
   24818   5   1   1   0   1   1298  3969  3967  3967 13857 13849  3967 13856
   24819   5   1   1   0   1  13834  3967 13844 13844 13855 13851 13844 13839
   24820   5   1   1   0   1  13853 13844  3969  3969 13845 13850  3969 13852
   24821   5   1   1   0   1   1291  3964  3957  3957 13848 13840  3957 13847
   24822   5   1   1   0   1  13870  3957 13880 13880 13846 13842 13880 13875
   24823   5   1   1   0   1  13888 13880  3964  3964 13881 13841  3964 13843
   24824   5   1   1   0   1  13870 13861  3958  3958 13866 13831  3958 13838
   24825   5   1   1   0   1   1297  3958  3961  3961 13837 13833  3961 13836
   24826   5   1   1   0   1  13853  3961 13861 13861 13835 13832 13861 13854
   24827   5   1   1   0   1  13904 13895  3952  3952 13900 13822  3952 13829
   24828   5   1   1   0   1   1293  3952  3955  3955 13828 13824  3955 13827
   24829   5   1   1   0   1  13888  3955 13895 13895 13826 13823 13895 13889
   24830   5   1   1   0   1   1289  3945  3951  3951 13802 13815  3951 13821
   24831   5   1   1   0   1  13904  3951 13914 13914 13820 13817 13914 13909
   24832   5   1   1   0   1  13923 13914  3945  3945 13915 13816  3945 13801
   24833   5   1   1   0   1   1286  3948  3941  3941 13814 13806  3941 13813
   24834   5   1   1   0   1  13940  3941 13950 13950 13812 13808 13950 13945
   24835   5   1   1   0   1  13958 13950  3948  3948 13951 13807  3948 13809
   24836   5   1   1   0   1  13940 13931  3942  3942 13936 13797  3942 13804
   24837   5   1   1   0   1   1289  3942  3945  3945 13803 13799  3945 13802
   24838   5   1   1   0   1  13923  3945 13931 13931 13801 13798 13931 13924
   24839   5   1   1   0   1  13974 13965  3934  3934 13970 13788  3934 13795
   24840   5   1   1   0   1   1285  3934  3938  3938 13794 13790  3938 13793
   24841   5   1   1   0   1  13958  3938 13965 13965 13792 13789 13965 13959
   24842   5   1   1   0   1   1278  3935  3933  3933 13787 13779  3933 13786
   24843   5   1   1   0   1  13974  3933 13984 13984 13785 13781 13984 13979
   24844   5   1   1   0   1  13993 13984  3935  3935 13985 13780  3935 13782
   24845   5   1   1   0   1   1271  3930  3923  3923 13778 13770  3923 13777
   24846   5   1   1   0   1  14010  3923 14020 14020 13776 13772 14020 14015
   24847   5   1   1   0   1  14029 14020  3930  3930 14021 13771  3930 13773
   24848   5   1   1   0   1  14010 14001  3924  3924 14006 13761  3924 13768
   24849   5   1   1   0   1   1275  3924  3927  3927 13767 13763  3927 13766
   24850   5   1   1   0   1  13993  3927 14001 14001 13765 13762 14001 13994

 *** ANSYS - ENGINEERING ANALYSIS SYSTEM  RELEASE Release 16.1     16.1     ***
 ANSYS Academic Teaching Advanced                  
 00203145  VERSION=LINUX x64     16:01:42  JUN 12, 2018 CP=     42.274

                                                                               


 
    ELEM MAT TYP REL ESY SEC        NODES
 
   24851   5   1   1   0   1  14046 14037  3916  3916 14042 13752  3916 13759
   24852   5   1   1   0   1   1270  3916  3920  3920 13758 13754  3920 13757
   24853   5   1   1   0   1  14029  3920 14037 14037 13756 13753 14037 14030
   24854   5   1   1   0   1   1272  3917  3915  3915 13751 13743  3915 13750
   24855   5   1   1   0   1  14046  3915 14056 14056 13749 13745 14056 14051
   24856   5   1   1   0   1  14064 14056  3917  3917 14057 13744  3917 13746
   24857   5   1   1   0   1   1262  3912  3905  3905 13742 13734  3905 13741
   24858   5   1   1   0   1  14080  3905 14090 14090 13740 13736 14090 14085
   24859   5   1   1   0   1  14099 14090  3912  3912 14091 13735  3912 13737
   24860   5   1   1   0   1  14080 14071  3906  3906 14076 13725  3906 13732
   24861   5   1   1   0   1   1268  3906  3909  3909 13731 13727  3909 13730
   24862   5   1   1   0   1  14064  3909 14071 14071 13729 13726 14071 14065
   24863   5   1   1   0   1  14116 14107  3900  3900 14112 13716  3900 13723
   24864   5   1   1   0   1   1264  3900  3903  3903 13722 13718  3903 13721
   24865   5   1   1   0   1  14099  3903 14107 14107 13720 13717 14107 14100
   24866   5   1   1   0   1   1260  3893  3899  3899 13696 13709  3899 13715
   24867   5   1   1   0   1  14116  3899 14126 14126 13714 13711 14126 14121
   24868   5   1   1   0   1  14134 14126  3893  3893 14127 13710  3893 13695
   24869   5   1   1   0   1   1257  3896  3889  3889 13708 13700  3889 13707
   24870   5   1   1   0   1  14150  3889 14160 14160 13706 13702 14160 14155
   24871   5   1   1   0   1  14169 14160  3896  3896 14161 13701  3896 13703
   24872   5   1   1   0   1  14150 14141  3890  3890 14146 13691  3890 13698
   24873   5   1   1   0   1   1260  3890  3893  3893 13697 13693  3893 13696
   24874   5   1   1   0   1  14134  3893 14141 14141 13695 13692 14141 14135
   24875   5   1   1   0   1  14186 14177  3882  3882 14182 13682  3882 13689
   24876   5   1   1   0   1   1256  3882  3886  3886 13688 13684  3886 13687
   24877   5   1   1   0   1  14169  3886 14177 14177 13686 13683 14177 14170
   24878   5   1   1   0   1   1251  3883  3881  3881 13681 13673  3881 13680
   24879   5   1   1   0   1  14186  3881 14196 14196 13679 13675 14196 14191
   24880   5   1   1   0   1     38 14196  3883  3883 14197 13674  3883 13676
   24881   3   1   1   0   1     45  3861    43    43 13669 13668    43    44
   24882   3   1   1   0   1     45  1238  3861  3861  3875 13638  3861 13669
   24883   3   1   1   0   1   1234  3854  3864  3864 13666 13665  3864 13650
   24884   3   1   1   0   1   1234  1233  3854  3854  3872 13629  3854 13666
   24885   3   1   1   0   1   3846  1227  3836  3836 13664 13593  3836 13663
   24886   3   1   1   0   1   3846  1225  1227  1227 13614  3870  1227 13664
   24887   3   1   1   0   1   1220 13659  3833  3833 13662 13660  3833 13587
   24888   3   1   1   0   1   1220  3866 13659 13659  3867  3868 13659 13662
   24889   3   1   1   0   1   1238  3857  3858  3858 13658 13657  3858 13639
   24890   3   1   1   0   1   1238  1234  3857  3857  3859 13649  3857 13658
   24891   3   1   1   0   1   1233  3849  3850  3850 13656 13655  3850 13630
   24892   3   1   1   0   1   1233  1235  3849  3849  3848 13622  3849 13656
   24893   3   1   1   0   1   3840  1225  3839  3839 13654 13613  3839 13653
   24894   3   1   1   0   1   3840  1231  1225  1225 13603  3841  1225 13654
   24895   3   1   1   0   1   3832  1220  3831  3831 13652 13586  3831 13651
   24896   3   1   1   0   1   3832  1227  1220  1220 13594  3830  1220 13652
   24897   3   1   1   0   1   1234  3864  3857  3857 13650 13642  3857 13649
   24898   3   1   1   0   1  13636  3857 13627 13627 13648 13644 13627 13632
   24899   3   1   1   0   1  13619 13627  3864  3864 13620 13643  3864 13645
   24900   3   1   1   0   1  13636 13646  3858  3858 13641 13633  3858 13640

 *** ANSYS - ENGINEERING ANALYSIS SYSTEM  RELEASE Release 16.1     16.1     ***
 ANSYS Academic Teaching Advanced                  
 00203145  VERSION=LINUX x64     16:01:42  JUN 12, 2018 CP=     42.275

                                                                               


 
    ELEM MAT TYP REL ESY SEC        NODES
 
   24901   3   1   1   0   1   1238  3858  3861  3861 13639 13635  3861 13638
   24902   3   1   1   0   1     38  3861 13646 13646 13637 13634 13646 13647
   24903   3   1   1   0   1  13600 13610  3850  3850 13605 13624  3850 13631
   24904   3   1   1   0   1   1233  3850  3854  3854 13630 13626  3854 13629
   24905   3   1   1   0   1  13619  3854 13610 13610 13628 13625 13610 13611
   24906   3   1   1   0   1   1235  3851  3849  3849 13623 13615  3849 13622
   24907   3   1   1   0   1  13600  3849 13591 13591 13621 13617 13591 13596
   24908   3   1   1   0   1  13583 13591  3851  3851 13584 13616  3851 13618
   24909   3   1   1   0   1   1225  3846  3839  3839 13614 13606  3839 13613
   24910   3   1   1   0   1   3852  3839  3842  3842 13612 13608  3842  3847
   24911   3   1   1   0   1   3834  3842  3846  3846  3835 13607  3846 13609
   24912   3   1   1   0   1   3852  3860  3840  3840  3853 13597  3840 13604
   24913   3   1   1   0   1   1231  3840  3843  3843 13603 13599  3843 13602
   24914   3   1   1   0   1  13583  3843  3860  3860 13601 13598  3860  3865
   24915   3   1   1   0   1   1229  1236  3832  3832  1230 13588  3832 13595
   24916   3   1   1   0   1   1227  3832  3836  3836 13594 13590  3836 13593
   24917   3   1   1   0   1   3834  3836  1236  1236 13592 13589  1236  1237
   24918   3   1   1   0   1   1220  3833  3831  3831 13587 13579  3831 13586
   24919   3   1   1   0   1   1229  3831    40    40 13585 13581    40    41
   24920   3   1   1   0   1      8    40  3833  3833    39 13580  3833 13582
   24921   3   1   1   0   1   3753  1183  3745  3745 13578 13408  3745 13577
   24922   3   1   1   0   1   3753  1187  1183  1183 13429  3828  1183 13578
   24923   3   1   1   0   1   1205  3709  3787  3787 13576 13575  3787 13499
   24924   3   1   1   0   1   1205  1157  3709  3709  3826 13336  3709 13576
   24925   3   1   1   0   1  13571  1208  3797  3797 13573 13514  3797 13572
   24926   3   1   1   0   1  13571  3822  1208  1208  3825  3823  1208 13573
   24927   3   1   1   0   1   1204  3790  3800  3800 13570 13569  3800 13526
   24928   3   1   1   0   1   1204  1203  3790  3790  3820 13505  3790 13570
   24929   3   1   1   0   1   1163  3779  3717  3717 13568 13567  3717 13357
   24930   3   1   1   0   1   1163  1199  3779  3779  3818 13478  3779 13568
   24931   3   1   1   0   1   3782  1195  3773  3773 13566 13469  3773 13565
   24932   3   1   1   0   1   3782  1193  1195  1195 13490  3816  1195 13566
   24933   3   1   1   0   1   1186  3756  3766  3766 13564 13563  3766 13456
   24934   3   1   1   0   1   1186  1185  3756  3756  3814 13435  3756 13564
   24935   3   1   1   0   1   3748  1179  3738  3738 13562 13399  3738 13561
   24936   3   1   1   0   1   3748  1177  1179  1179 13420  3812  1179 13562
   24937   3   1   1   0   1   3735  1171   304   304 13559   305   304 13558
   24938   3   1   1   0   1   3735  1172  1171  1171 13393  3809  1171 13559
   24939   3   1   1   0   1   1154  3727  3699  3699 13556 13555  3699 13321
   24940   3   1   1   0   1   1154  1166  3727  3727  3806 13372  3727 13556
   24941   3   1   1   0   1   1162  3720  3730  3730 13554 13553  3730 13384
   24942   3   1   1   0   1   1162  1161  3720  3720  3804 13363  3720 13554
   24943   3   1   1   0   1   1153  3702  3712  3712 13552 13551  3712 13348
   24944   3   1   1   0   1   1153  1152  3702  3702  3802 13327  3702 13552
   24945   3   1   1   0   1   3786  1205  3785  3785 13548 13498  3785 13547
   24946   3   1   1   0   1   3786  1203  1205  1205 13506  3784  1205 13548
   24947   3   1   1   0   1   3776  1193  3775  3775 13546 13489  3775 13545
   24948   3   1   1   0   1   3776  1199  1193  1193 13479  3777  1193 13546
   24949   3   1   1   0   1   3770  1190  3769  3769 13544 13463  3769 13543
   24950   3   1   1   0   1   3770  1195  1190  1190 13470  3768  1190 13544

 *** ANSYS - ENGINEERING ANALYSIS SYSTEM  RELEASE Release 16.1     16.1     ***
 ANSYS Academic Teaching Advanced                  
 00203145  VERSION=LINUX x64     16:01:42  JUN 12, 2018 CP=     42.275

                                                                               


 
    ELEM MAT TYP REL ESY SEC        NODES
 
   24951   3   1   1   0   1   1190  3759  3760  3760 13542 13541  3760 13445
   24952   3   1   1   0   1   1190  1186  3759  3759  3761 13455  3759 13542
   24953   3   1   1   0   1   1185  3751  3752  3752 13540 13539  3752 13436
   24954   3   1   1   0   1   1185  1187  3751  3751  3750 13428  3751 13540
   24955   3   1   1   0   1   1183  3741  3742  3742 13538 13537  3742 13409
   24956   3   1   1   0   1   1183  1177  3741  3741  3743 13419  3741 13538
   24957   3   1   1   0   1   3734  1172  3733  3733 13536 13392  3733 13535
   24958   3   1   1   0   1   3734  1179  1172  1172 13400  3732  1172 13536
   24959   3   1   1   0   1   1166  3723  3724  3724 13534 13533  3724 13373
   24960   3   1   1   0   1   1166  1162  3723  3723  3725 13383  3723 13534
   24961   3   1   1   0   1   1161  3715  3716  3716 13532 13531  3716 13364
   24962   3   1   1   0   1   1161  1163  3715  3715  3714 13356  3715 13532
   24963   3   1   1   0   1   3706  1153  3705  3705 13530 13347  3705 13529
   24964   3   1   1   0   1   3706  1157  1153  1153 13337  3707  1153 13530
   24965   3   1   1   0   1   3698  1154  3697  3697 13528 13320  3697 13527
   24966   3   1   1   0   1   3698  1152  1154  1154 13328  3696  1154 13528
   24967   3   1   1   0   1   1204  3800  3793  3793 13526 13518  3793 13525
   24968   3   1   1   0   1  13512  3793 13503 13503 13524 13520 13503 13508
   24969   3   1   1   0   1  13495 13503  3800  3800 13496 13519  3800 13521
   24970   3   1   1   0   1  13512 13522  3794  3794 13517 13509  3794 13516
   24971   3   1   1   0   1   1208  3794  3797  3797 13515 13511  3797 13514
   24972   3   1   1   0   1    310  3797 13522 13522 13513 13510 13522 13523
   24973   3   1   1   0   1  13476 13486  3786  3786 13481 13500  3786 13507
   24974   3   1   1   0   1   1203  3786  3790  3790 13506 13502  3790 13505
   24975   3   1   1   0   1  13495  3790 13486 13486 13504 13501 13486 13487
   24976   3   1   1   0   1   1205  3787  3785  3785 13499 13491  3785 13498
   24977   3   1   1   0   1  13476  3785 13467 13467 13497 13493 13467 13472
   24978   3   1   1   0   1  13460 13467  3787  3787 13461 13492  3787 13494
   24979   3   1   1   0   1   1193  3782  3775  3775 13490 13482  3775 13489
   24980   3   1   1   0   1   1197  3775  1164  1164 13488 13484  1164  1165
   24981   3   1   1   0   1   1155  1164  3782  3782  1156 13483  3782 13485
   24982   3   1   1   0   1   1197  1206  3776  3776  1198 13473  3776 13480
   24983   3   1   1   0   1   1199  3776  3779  3779 13479 13475  3779 13478
   24984   3   1   1   0   1   3700  3779  1206  1206 13477 13474  1206  1207
   24985   3   1   1   0   1    314   316  3770  3770   315 13464  3770 13471
   24986   3   1   1   0   1   1195  3770  3773  3773 13470 13466  3773 13469
   24987   3   1   1   0   1   1155  3773   316   316 13468 13465   316   317
   24988   3   1   1   0   1    314  3769   312   312 13462 13459   312   313
   24989   3   1   1   0   1    306   312  3763  3763   311 13458  3763 13443
   24990   3   1   1   0   1   1186  3766  3759  3759 13456 13448  3759 13455
   24991   3   1   1   0   1  13442  3759 13433 13433 13454 13450 13433 13438
   24992   3   1   1   0   1  13425 13433  3766  3766 13426 13449  3766 13451
   24993   3   1   1   0   1  13442 13452  3760  3760 13447 13439  3760 13446
   24994   3   1   1   0   1    306  3763 13452 13452 13443 13440 13452 13453
   24995   3   1   1   0   1  13406 13416  3752  3752 13411 13430  3752 13437
   24996   3   1   1   0   1   1185  3752  3756  3756 13436 13432  3756 13435
   24997   3   1   1   0   1  13425  3756 13416 13416 13434 13431 13416 13417
   24998   3   1   1   0   1   1187  3753  3751  3751 13429 13421  3751 13428
   24999   3   1   1   0   1  13406  3751 13397 13397 13427 13423 13397 13402
   25000   3   1   1   0   1  13389 13397  3753  3753 13390 13422  3753 13424

 *** ANSYS - ENGINEERING ANALYSIS SYSTEM  RELEASE Release 16.1     16.1     ***
 ANSYS Academic Teaching Advanced                  
 00203145  VERSION=LINUX x64     16:01:42  JUN 12, 2018 CP=     42.276

                                                                               


 
    ELEM MAT TYP REL ESY SEC        NODES
 
   25001   3   1   1   0   1   1177  3748  3741  3741 13420 13412  3741 13419
   25002   3   1   1   0   1   3754  3741  3744  3744 13418 13414  3744  3749
   25003   3   1   1   0   1   3736  3744  3748  3748  3737 13413  3748 13415
   25004   3   1   1   0   1   3754  3762  3742  3742  3755 13403  3742 13410
   25005   3   1   1   0   1   1183  3742  3745  3745 13409 13405  3745 13408
   25006   3   1   1   0   1  13389  3745  3762  3762 13407 13404  3762  3767
   25007   3   1   1   0   1   1181  1188  3734  3734  1182 13394  3734 13401
   25008   3   1   1   0   1   1179  3734  3738  3738 13400 13396  3738 13399
   25009   3   1   1   0   1   3736  3738  1188  1188 13398 13395  1188  1189
   25010   3   1   1   0   1   1172  3735  3733  3733 13393 13385  3733 13392
   25011   3   1   1   0   1   1181  3733   308   308 13391 13387   308   309
   25012   3   1   1   0   1    302   308  3735  3735   307 13386  3735 13388
   25013   3   1   1   0   1   1162  3730  3723  3723 13384 13376  3723 13383
   25014   3   1   1   0   1   3788  3723  3778  3778 13382 13378  3778  3783
   25015   3   1   1   0   1   3771  3778  3730  3730  3772 13377  3730 13379
   25016   3   1   1   0   1   3788  3796  3724  3724  3789 13367  3724 13374
   25017   3   1   1   0   1   1166  3724  3727  3727 13373 13369  3727 13372
   25018   3   1   1   0   1  13317  3727  3796  3796 13371 13368  3796  3801
   25019   3   1   1   0   1   3718  3726  3716  3716  3719 13358  3716 13365
   25020   3   1   1   0   1   1161  3716  3720  3720 13364 13360  3720 13363
   25021   3   1   1   0   1   3771  3720  3726  3726 13362 13359  3726  3731
   25022   3   1   1   0   1   1163  3717  3715  3715 13357 13349  3715 13356
   25023   3   1   1   0   1   3718  3715  3708  3708 13355 13351  3708  3713
   25024   3   1   1   0   1   3700  3708  3717  3717  3701 13350  3717 13352
   25025   3   1   1   0   1   1153  3712  3705  3705 13348 13340  3705 13347
   25026   3   1   1   0   1  13370  3705 13361 13361 13346 13342 13361 13366
   25027   3   1   1   0   1  13353 13361  3712  3712 13354 13341  3712 13343
   25028   3   1   1   0   1  13370 13380  3706  3706 13375 13331  3706 13338
   25029   3   1   1   0   1   1157  3706  3709  3709 13337 13333  3709 13336
   25030   3   1   1   0   1  13460  3709 13380 13380 13335 13332 13380 13381
   25031   3   1   1   0   1  13334 13344  3698  3698 13339 13322  3698 13329
   25032   3   1   1   0   1   1152  3698  3702  3702 13328 13324  3702 13327
   25033   3   1   1   0   1  13353  3702 13344 13344 13326 13323 13344 13345
   25034   3   1   1   0   1   1154  3699  3697  3697 13321 13313  3697 13320
   25035   3   1   1   0   1  13334  3697 13325 13325 13319 13315 13325 13330
   25036   3   1   1   0   1  13317 13325  3699  3699 13318 13314  3699 13316
