
 PRINT VOLT NODAL SOLUTION PER NODE

 *** ANSYS - ENGINEERING ANALYSIS SYSTEM  RELEASE Release 16.1     16.1     ***
 ANSYS Academic Teaching Advanced                  
 00203145  VERSION=LINUX x64     16:01:42  JUN 12, 2018 CP=     42.278

                                                                               


 
  ***** POST1 NODAL DEGREE OF FREEDOM LISTING *****                            
 
  LOAD STEP=     1  SUBSTEP=     1                                             
   TIME=    1.0000      LOAD CASE=   0                                         
 
    NODE      VOLT  
       1   1044.4    
       2   0.0000    
       3   867.99    
       4   714.43    
       5   524.63    
       6   364.18    
       7   165.13    
       8   0.0000    
       9   0.0000    
      10   0.0000    
      11   0.0000    
      12   0.0000    
      13   0.0000    
      14   0.0000    
      15   0.0000    
      16   0.0000    
      17   0.0000    
      18   0.0000    
      19   0.0000    
      20   0.0000    
      21   0.0000    
      22   0.0000    
      23   0.0000    
      24   0.0000    
      25   0.0000    
      26   0.0000    
      27   0.0000    
      28   0.0000    
      29   0.0000    
      30   0.0000    
      31   0.0000    
      32   0.0000    
      33   0.0000    
      34   0.0000    
      35   0.0000    
      36   0.0000    
      37   0.0000    
      38   1243.3    
      39   47.202    

 *** ANSYS - ENGINEERING ANALYSIS SYSTEM  RELEASE Release 16.1     16.1     ***
 ANSYS Academic Teaching Advanced                  
 00203145  VERSION=LINUX x64     16:01:42  JUN 12, 2018 CP=     42.279

                                                                               


 
  ***** POST1 NODAL DEGREE OF FREEDOM LISTING *****                            
 
  LOAD STEP=     1  SUBSTEP=     1                                             
   TIME=    1.0000      LOAD CASE=   0                                         
 
    NODE      VOLT  
      40   82.427    
      41   113.52    
      42   1220.8    
      43   1204.3    
      44   1190.8    
      45   1179.1    
      46   1159.4    
      47   1143.1    
      48   1117.9    
      49   1098.1    
      50   1076.6    
      51   1074.2    
      52   1057.0    
      53   1052.8    
      54   1052.7    
      55   1046.5    
      56   1047.4    
      57   1057.2    
      58   1049.2    
      59   1043.9    
      60   1045.9    
      61   1056.9    
      62   1047.8    
      63   1044.3    
      64   1046.3    
      65   1057.0    
      66   1046.5    
      67   1044.3    
      68   1047.5    
      69   1056.9    
      70   1046.0    
      71   230.05    
      72   752.91    
      73   482.69    
      74   554.56    
      75   880.03    
      76   577.85    
      77   871.83    
      78   360.52    

 *** ANSYS - ENGINEERING ANALYSIS SYSTEM  RELEASE Release 16.1     16.1     ***
 ANSYS Academic Teaching Advanced                  
 00203145  VERSION=LINUX x64     16:01:42  JUN 12, 2018 CP=     42.279

                                                                               


 
  ***** POST1 NODAL DEGREE OF FREEDOM LISTING *****                            
 
  LOAD STEP=     1  SUBSTEP=     1                                             
   TIME=    1.0000      LOAD CASE=   0                                         
 
    NODE      VOLT  
      79   353.87    
      80   136.77    
      81   156.11    
      82   419.19    
      83   405.62    
      84   401.81    
      85   402.06    
      86   401.40    
      87   401.63    
      88   401.35    
      89   401.75    
      90   401.92    
      91   404.86    
      92   419.73    
      93   477.83    
      94   230.89    
      95   230.09    
      96   194.09    
      97   194.40    
      98   183.83    
      99   183.98    
     100   182.20    
     101   182.17    
     102   181.86    
     103   181.89    
     104   181.82    
     105   181.79    
     106   181.80    
     107   181.83    
     108   181.81    
     109   181.82    
     110   181.89    
     111   182.03    
     112   182.12    
     113   182.38    
     114   182.16    
     115   183.08    
     116   185.59    
     117   188.32    

 *** ANSYS - ENGINEERING ANALYSIS SYSTEM  RELEASE Release 16.1     16.1     ***
 ANSYS Academic Teaching Advanced                  
 00203145  VERSION=LINUX x64     16:01:42  JUN 12, 2018 CP=     42.279

                                                                               


 
  ***** POST1 NODAL DEGREE OF FREEDOM LISTING *****                            
 
  LOAD STEP=     1  SUBSTEP=     1                                             
   TIME=    1.0000      LOAD CASE=   0                                         
 
    NODE      VOLT  
     118   194.37    
     119   202.96    
     120   721.51    
     121   704.80    
     122   692.72    
     123   684.92    
     124   679.76    
     125   677.39    
     126   677.22    
     127   678.17    
     128   678.56    
     129   676.40    
     130   675.73    
     131   677.33    
     132   678.05    
     133   676.16    
     134   675.85    
     135   677.44    
     136   678.04    
     137   676.13    
     138   676.62    
     139   678.27    
     140   681.31    
     141   679.27    
     142   696.36    
     143   696.61    
     144   753.85    
     145   751.85    
     146   614.25    
     147   441.41    
     148   523.50    
     149   433.36    
     150   407.03    
     151   402.71    
     152   401.88    
     153   401.69    
     154   401.76    
     155   401.65    
     156   402.04    

 *** ANSYS - ENGINEERING ANALYSIS SYSTEM  RELEASE Release 16.1     16.1     ***
 ANSYS Academic Teaching Advanced                  
 00203145  VERSION=LINUX x64     16:01:42  JUN 12, 2018 CP=     42.281

                                                                               


 
  ***** POST1 NODAL DEGREE OF FREEDOM LISTING *****                            
 
  LOAD STEP=     1  SUBSTEP=     1                                             
   TIME=    1.0000      LOAD CASE=   0                                         
 
    NODE      VOLT  
     157   402.37    
     158   402.66    
     159   410.92    
     160   433.45    
     161   294.77    
     162   696.32    
     163   1900.0    
     164   1896.0    
     165   1891.9    
     166   1887.8    
     167   1883.9    
     168   1880.1    
     169   1876.4    
     170   1872.9    
     171   1869.5    
     172   1866.2    
     173   1863.0    
     174   1859.8    
     175   1856.8    
     176   1853.9    
     177   1851.1    
     178   1848.3    
     179   1845.6    
     180   1843.1    
     181   1840.5    
     182   1838.1    
     183   1835.7    
     184   1833.4    
     185   1831.2    
     186   1829.1    
     187   1827.0    
     188   1824.9    
     189   1823.0    
     190   1821.0    
     191   1819.1    
     192   1817.3    
     193   1900.0    
     194   1900.0    
     195   1900.0    

 *** ANSYS - ENGINEERING ANALYSIS SYSTEM  RELEASE Release 16.1     16.1     ***
 ANSYS Academic Teaching Advanced                  
 00203145  VERSION=LINUX x64     16:01:42  JUN 12, 2018 CP=     42.281

                                                                               


 
  ***** POST1 NODAL DEGREE OF FREEDOM LISTING *****                            
 
  LOAD STEP=     1  SUBSTEP=     1                                             
   TIME=    1.0000      LOAD CASE=   0                                         
 
    NODE      VOLT  
     196   1900.0    
     197   1900.0    
     198   1900.0    
     199   1900.0    
     200   1900.0    
     201   1900.0    
     202   1900.0    
     203   1900.0    
     204   1900.0    
     205   1900.0    
     206   1900.0    
     207   1900.0    
     208   1900.0    
     209   1900.0    
     210   1900.0    
     211   1900.0    
     212   1900.0    
     213   1900.0    
     214   1900.0    
     215   1900.0    
     216   1900.0    
     217   1900.0    
     218   1900.0    
     219   1900.0    
     220   1900.0    
     221   1900.0    
     222   1900.0    
     223   1900.0    
     224   1900.0    
     225   1900.0    
     226   1900.0    
     227   1900.0    
     228   1900.0    
     229   1184.1    
     230   1356.3    
     231   1585.1    
     232   1173.0    
     233   1892.5    
     234   1175.0    

 *** ANSYS - ENGINEERING ANALYSIS SYSTEM  RELEASE Release 16.1     16.1     ***
 ANSYS Academic Teaching Advanced                  
 00203145  VERSION=LINUX x64     16:01:42  JUN 12, 2018 CP=     42.281

                                                                               


 
  ***** POST1 NODAL DEGREE OF FREEDOM LISTING *****                            
 
  LOAD STEP=     1  SUBSTEP=     1                                             
   TIME=    1.0000      LOAD CASE=   0                                         
 
    NODE      VOLT  
     235   1357.7    
     236   1880.1    
     237   1859.4    
     238   1248.8    
     239   1338.4    
     240   1559.0    
     241   1556.2    
     242   1890.7    
     243   1868.9    
     244   1885.7    
     245   1880.2    
     246   1890.5    
     247   1893.0    
     248   1110.0    
     249   1260.8    
     250   1108.4    
     251   1837.7    
     252   1831.4    
     253   1811.7    
     254   1808.0    
     255   1807.7    
     256   1787.6    
     257   1795.1    
     258   1796.4    
     259   1782.4    
     260   1774.9    
     261   1764.6    
     262   1759.8    
     263   1763.7    
     264   1743.0    
     265   1729.7    
     266   1738.7    
     267   1676.9    
     268   1703.4    
     269   1670.3    
     270   1580.9    
     271   1510.2    
     272   1303.0    
     273   1406.3    

 *** ANSYS - ENGINEERING ANALYSIS SYSTEM  RELEASE Release 16.1     16.1     ***
 ANSYS Academic Teaching Advanced                  
 00203145  VERSION=LINUX x64     16:01:42  JUN 12, 2018 CP=     42.282

                                                                               


 
  ***** POST1 NODAL DEGREE OF FREEDOM LISTING *****                            
 
  LOAD STEP=     1  SUBSTEP=     1                                             
   TIME=    1.0000      LOAD CASE=   0                                         
 
    NODE      VOLT  
     274   1378.4    
     275   1364.6    
     276   1377.8    
     277   1372.6    
     278   1360.0    
     279   1359.6    
     280   1853.3    
     281   1357.7    
     282   1370.6    
     283   1358.4    
     284   1371.4    
     285   1357.7    
     286   1358.1    
     287   1371.4    
     288   1357.7    
     289   1370.5    
     290   1365.9    
     291   1178.0    
     292   1879.7    
     293   1882.1    
     294   1329.1    
     295   0.0000    
     296   0.0000    
     297   3.2496    
     298   6.1467    
     299   10.037    
     300   12.687    
     301   12.483    
     302   0.0000    
     303   0.0000    
     304   0.0000    
     305   0.0000    
     306   84.347    
     307   4.7228    
     308   8.9109    
     309   12.506    
     310   0.0000    
     311   82.150    
     312   80.410    

 *** ANSYS - ENGINEERING ANALYSIS SYSTEM  RELEASE Release 16.1     16.1     ***
 ANSYS Academic Teaching Advanced                  
 00203145  VERSION=LINUX x64     16:01:42  JUN 12, 2018 CP=     42.283

                                                                               


 
  ***** POST1 NODAL DEGREE OF FREEDOM LISTING *****                            
 
  LOAD STEP=     1  SUBSTEP=     1                                             
   TIME=    1.0000      LOAD CASE=   0                                         
 
    NODE      VOLT  
     313   78.907    
     314   77.501    
     315   76.164    
     316   74.882    
     317   73.644    
     318   0.0000    
     319   0.0000    
     320   0.0000    
     321   0.0000    
     322   0.0000    
     323   30.401    
     324   17.861    
     325   10.565    
     326   6.8322    
     327   20.217    
     328   10.475    
     329   30.578    
     330   53.532    
     331   48.270    
     332   59.212    
     333   21.762    
     334   34.610    
     335   10.076    
     336   17.570    
     337   5.8384    
     338   4.7558    
     339   1.7084    
     340   1.6713    
     341   21.189    
     342   14.371    
     343   51.881    
     344   40.870    
     345   33.477    
     346   26.585    
     347   11.649    
     348   12.638    
     349   14.446    
     350   14.151    
     351   4.9497    

 *** ANSYS - ENGINEERING ANALYSIS SYSTEM  RELEASE Release 16.1     16.1     ***
 ANSYS Academic Teaching Advanced                  
 00203145  VERSION=LINUX x64     16:01:42  JUN 12, 2018 CP=     42.283

                                                                               


 
  ***** POST1 NODAL DEGREE OF FREEDOM LISTING *****                            
 
  LOAD STEP=     1  SUBSTEP=     1                                             
   TIME=    1.0000      LOAD CASE=   0                                         
 
    NODE      VOLT  
     352   4.4439    
     353   7.0987    
     354   10.911    
     355   8.4490    
     356   19.295    
     357   23.066    
     358   3.2818    
     359   20.406    
     360   39.303    
     361   13.458    
     362   0.0000    
     363   0.0000    
     364   0.0000    
     365   0.0000    
     366   0.0000    
     367   0.0000    
     368   0.0000    
     369   1900.0    
     370   1843.3    
     371   1790.0    
     372   1738.5    
     373   1690.1    
     374   1645.4    
     375   1603.2    
     376   1560.2    
     377   1519.6    
     378   1483.1    
     379   1448.5    
     380   1413.6    
     381   1380.5    
     382   1349.1    
     383   1319.3    
     384   1290.7    
     385   1263.5    
     386   1213.4    
     387   1900.0    
     388   1900.0    
     389   1900.0    
     390   1900.0    

 *** ANSYS - ENGINEERING ANALYSIS SYSTEM  RELEASE Release 16.1     16.1     ***
 ANSYS Academic Teaching Advanced                  
 00203145  VERSION=LINUX x64     16:01:42  JUN 12, 2018 CP=     42.284

                                                                               


 
  ***** POST1 NODAL DEGREE OF FREEDOM LISTING *****                            
 
  LOAD STEP=     1  SUBSTEP=     1                                             
   TIME=    1.0000      LOAD CASE=   0                                         
 
    NODE      VOLT  
     391   1900.0    
     392   1900.0    
     393   1900.0    
     394   1900.0    
     395   1900.0    
     396   1900.0    
     397   1900.0    
     398   1900.0    
     399   1900.0    
     400   1900.0    
     401   1900.0    
     402   1900.0    
     403   1900.0    
     404   1900.0    
     405   1900.0    
     406   0.0000    
     407   0.0000    
     408   0.0000    
     409   0.0000    
     410   0.0000    
     411   0.0000    
     412   0.0000    
     413   0.0000    
     414   0.0000    
     415   0.0000    
     416   0.0000    
     417   0.0000    
     418   0.0000    
     419   0.0000    
     420   0.0000    
     421   0.0000    
     422   0.0000    
     423   0.0000    
     424   0.0000    
     425   0.0000    
     426   0.0000    
     427   0.0000    
     428   0.0000    
     429   0.0000    

 *** ANSYS - ENGINEERING ANALYSIS SYSTEM  RELEASE Release 16.1     16.1     ***
 ANSYS Academic Teaching Advanced                  
 00203145  VERSION=LINUX x64     16:01:42  JUN 12, 2018 CP=     42.285

                                                                               


 
  ***** POST1 NODAL DEGREE OF FREEDOM LISTING *****                            
 
  LOAD STEP=     1  SUBSTEP=     1                                             
   TIME=    1.0000      LOAD CASE=   0                                         
 
    NODE      VOLT  
     430   0.0000    
     431   0.0000    
     432   0.0000    
     433   0.0000    
     434   0.0000    
     435   0.0000    
     436   0.0000    
     437   0.0000    
     438   0.0000    
     439   0.0000    
     440   0.0000    
     441   0.0000    
     442   0.0000    
     443   0.0000    
     444   0.0000    
     445   0.0000    
     446   0.0000    
     447   0.0000    
     448   0.0000    
     449   0.0000    
     450   0.0000    
     451   0.0000    
     452   0.0000    
     453   0.0000    
     454   0.0000    
     455   0.0000    
     456   0.0000    
     457   0.0000    
     458   0.0000    
     459   0.0000    
     460   0.0000    
     461   0.0000    
     462   0.0000    
     463   0.0000    
     464   0.0000    
     465   0.0000    
     466   0.0000    
     467   0.0000    
     468   0.0000    

 *** ANSYS - ENGINEERING ANALYSIS SYSTEM  RELEASE Release 16.1     16.1     ***
 ANSYS Academic Teaching Advanced                  
 00203145  VERSION=LINUX x64     16:01:42  JUN 12, 2018 CP=     42.285

                                                                               


 
  ***** POST1 NODAL DEGREE OF FREEDOM LISTING *****                            
 
  LOAD STEP=     1  SUBSTEP=     1                                             
   TIME=    1.0000      LOAD CASE=   0                                         
 
    NODE      VOLT  
     469   0.0000    
     470   0.0000    
     471   0.0000    
     472   0.0000    
     473   0.0000    
     474   0.0000    
     475   0.0000    
     476   0.0000    
     477   0.0000    
     478   0.0000    
     479   0.0000    
     480   129.37    
     481   57.632    
     482   804.78    
     483   1.9003    
     484   1.3658    
     485   688.95    
     486   683.21    
     487   343.30    
     488   280.26    
     489   987.88    
     490   525.45    
     491   250.35    
     492   2.0459    
     493   398.12    
     494   210.33    
     495   1.7521    
     496  0.35577    
     497   1859.4    
     498   143.52    
     499   765.41    
     500   804.29    
     501   401.11    
     502   976.52    
     503   62.767    
     504   39.749    
     505   748.28    
     506  0.25275E-01
     507   43.325    

 *** ANSYS - ENGINEERING ANALYSIS SYSTEM  RELEASE Release 16.1     16.1     ***
 ANSYS Academic Teaching Advanced                  
 00203145  VERSION=LINUX x64     16:01:42  JUN 12, 2018 CP=     42.285

                                                                               


 
  ***** POST1 NODAL DEGREE OF FREEDOM LISTING *****                            
 
  LOAD STEP=     1  SUBSTEP=     1                                             
   TIME=    1.0000      LOAD CASE=   0                                         
 
    NODE      VOLT  
     508   4.5932    
     509   907.78    
     510  0.11762E-01
     511  0.18406    
     512  0.56916E-02
     513  0.28933E-02
     514  0.23574E-01
     515  0.54104E-02
     516   2.7580    
     517   3.8032    
     518   1.3194    
     519   1.5395    
     520   48.508    
     521   31.985    
     522   21.148    
     523   17.129    
     524   576.19    
     525   659.54    
     526   1097.8    
     527   968.68    
     528   1376.0    
     529   1630.1    
     530   1436.8    
     531   1669.9    
     532   608.05    
     533   518.05    
     534   484.67    
     535   701.87    
     536   747.90    
     537   681.40    
     538   677.79    
     539   534.01    
     540   430.17    
     541   431.90    
     542   748.45    
     543   548.90    
     544   694.05    
     545   854.70    
     546   823.58    

 *** ANSYS - ENGINEERING ANALYSIS SYSTEM  RELEASE Release 16.1     16.1     ***
 ANSYS Academic Teaching Advanced                  
 00203145  VERSION=LINUX x64     16:01:42  JUN 12, 2018 CP=     42.287

                                                                               


 
  ***** POST1 NODAL DEGREE OF FREEDOM LISTING *****                            
 
  LOAD STEP=     1  SUBSTEP=     1                                             
   TIME=    1.0000      LOAD CASE=   0                                         
 
    NODE      VOLT  
     547   797.37    
     548   744.45    
     549   692.85    
     550   645.62    
     551   615.54    
     552   546.34    
     553   476.91    
     554   412.59    
     555   388.00    
     556   357.35    
     557   321.30    
     558   238.93    
     559   825.24    
     560   900.65    
     561   901.72    
     562   854.91    
     563   805.47    
     564   709.13    
     565   619.42    
     566   238.37    
     567   702.68    
     568   609.53    
     569   580.20    
     570   560.89    
     571   429.11    
     572   356.19    
     573   299.52    
     574   252.85    
     575   229.06    
     576   207.08    
     577   189.31    
     578   203.84    
     579   885.66    
     580   953.97    
     581   926.49    
     582   937.67    
     583   960.99    
     584   1016.3    
     585   979.14    

 *** ANSYS - ENGINEERING ANALYSIS SYSTEM  RELEASE Release 16.1     16.1     ***
 ANSYS Academic Teaching Advanced                  
 00203145  VERSION=LINUX x64     16:01:42  JUN 12, 2018 CP=     42.287

                                                                               


 
  ***** POST1 NODAL DEGREE OF FREEDOM LISTING *****                            
 
  LOAD STEP=     1  SUBSTEP=     1                                             
   TIME=    1.0000      LOAD CASE=   0                                         
 
    NODE      VOLT  
     586   948.31    
     587   922.34    
     588   898.40    
     589   868.93    
     590   828.04    
     591   779.91    
     592   725.24    
     593   659.54    
     594   533.46    
     595   369.09    
     596   399.90    
     597   221.49    
     598   494.58    
     599   823.49    
     600   574.75    
     601   510.50    
     602   441.91    
     603   381.11    
     604   334.86    
     605   301.69    
     606   276.43    
     607   214.01    
     608   177.43    
     609   174.51    
     610   1147.2    
     611   1033.3    
     612   1033.7    
     613   1033.7    
     614   1064.4    
     615   1053.2    
     616   997.92    
     617   941.53    
     618   861.50    
     619   741.51    
     620   572.82    
     621   175.38    
     622   428.30    
     623   450.08    
     624   237.51    

 *** ANSYS - ENGINEERING ANALYSIS SYSTEM  RELEASE Release 16.1     16.1     ***
 ANSYS Academic Teaching Advanced                  
 00203145  VERSION=LINUX x64     16:01:42  JUN 12, 2018 CP=     42.287

                                                                               


 
  ***** POST1 NODAL DEGREE OF FREEDOM LISTING *****                            
 
  LOAD STEP=     1  SUBSTEP=     1                                             
   TIME=    1.0000      LOAD CASE=   0                                         
 
    NODE      VOLT  
     625   305.24    
     626   163.12    
     627   191.85    
     628   5.3342    
     629   3.8359    
     630   2.8685    
     631   2.1528    
     632   629.32    
     633   796.84    
     634   484.24    
     635   458.30    
     636   325.07    
     637   250.08    
     638   208.53    
     639   194.84    
     640   179.96    
     641   165.14    
     642   148.67    
     643   143.62    
     644   34.898    
     645   22.034    
     646   1294.7    
     647   1198.9    
     648   1147.1    
     649   1135.8    
     650   1129.7    
     651   1120.7    
     652   1117.7    
     653   1121.9    
     654   1128.5    
     655   1132.1    
     656   1124.2    
     657   1104.3    
     658   1080.0    
     659   1053.8    
     660   1025.3    
     661   992.56    
     662   953.37    
     663   906.14    

 *** ANSYS - ENGINEERING ANALYSIS SYSTEM  RELEASE Release 16.1     16.1     ***
 ANSYS Academic Teaching Advanced                  
 00203145  VERSION=LINUX x64     16:01:42  JUN 12, 2018 CP=     42.288

                                                                               


 
  ***** POST1 NODAL DEGREE OF FREEDOM LISTING *****                            
 
  LOAD STEP=     1  SUBSTEP=     1                                             
   TIME=    1.0000      LOAD CASE=   0                                         
 
    NODE      VOLT  
     664   848.57    
     665   778.87    
     666   702.98    
     667   625.11    
     668   8.1576    
     669   13.611    
     670   1.5871    
     671   2.3148    
     672   3.5049    
     673   1.1812    
     674   150.79    
     675   100.47    
     676   90.192    
     677   318.50    
     678   214.95    
     679   242.73    
     680   156.28    
     681   55.175    
     682   21.500    
     683   7.7696    
     684   3.6908    
     685   2.1851    
     686   1.3486    
     687  0.91497    
     688   595.61    
     689   833.99    
     690   1146.5    
     691   1407.7    
     692   539.94    
     693   365.42    
     694   452.47    
     695   399.43    
     696   324.35    
     697   261.09    
     698   216.09    
     699   172.62    
     700   148.91    
     701   361.20    
     702   142.08    

 *** ANSYS - ENGINEERING ANALYSIS SYSTEM  RELEASE Release 16.1     16.1     ***
 ANSYS Academic Teaching Advanced                  
 00203145  VERSION=LINUX x64     16:01:42  JUN 12, 2018 CP=     42.289

                                                                               


 
  ***** POST1 NODAL DEGREE OF FREEDOM LISTING *****                            
 
  LOAD STEP=     1  SUBSTEP=     1                                             
   TIME=    1.0000      LOAD CASE=   0                                         
 
    NODE      VOLT  
     703   57.500    
     704   23.556    
     705   1523.8    
     706   1412.2    
     707   1276.7    
     708   1228.0    
     709   1210.5    
     710   1208.0    
     711   1202.1    
     712   1169.4    
     713   1120.3    
     714   1056.7    
     715   967.33    
     716   843.11    
     717   692.49    
     718   7.7202    
     719   1.5184    
     720   2.6849    
     721  0.89352    
     722   735.30    
     723   223.21    
     724   236.21    
     725   150.39    
     726   186.24    
     727   120.37    
     728   25.977    
     729   20.349    
     730   14.391    
     731   9.5992    
     732   6.4345    
     733   4.4933    
     734   3.1914    
     735   2.3739    
     736   1.6555    
     737   1.1088    
     738  0.89917    
     739  0.71155    
     740  0.52968    
     741   831.88    

 *** ANSYS - ENGINEERING ANALYSIS SYSTEM  RELEASE Release 16.1     16.1     ***
 ANSYS Academic Teaching Advanced                  
 00203145  VERSION=LINUX x64     16:01:42  JUN 12, 2018 CP=     42.289

                                                                               


 
  ***** POST1 NODAL DEGREE OF FREEDOM LISTING *****                            
 
  LOAD STEP=     1  SUBSTEP=     1                                             
   TIME=    1.0000      LOAD CASE=   0                                         
 
    NODE      VOLT  
     742   937.68    
     743   1065.6    
     744   1203.6    
     745   1334.1    
     746   1446.4    
     747   445.66    
     748   342.92    
     749   329.49    
     750   172.68    
     751   149.42    
     752   135.44    
     753   125.55    
     754   119.52    
     755   120.23    
     756   109.43    
     757   88.355    
     758   92.778    
     759   523.89    
     760   222.16    
     761   347.59    
     762   91.624    
     763   141.35    
     764   39.856    
     765   60.671    
     766   16.171    
     767   25.627    
     768   6.6974    
     769   10.247    
     770   1635.0    
     771   1569.7    
     772   1513.7    
     773   1453.9    
     774   1400.7    
     775   1362.1    
     776   1337.3    
     777   1322.6    
     778   1313.0    
     779   1306.4    
     780   1302.8    

 *** ANSYS - ENGINEERING ANALYSIS SYSTEM  RELEASE Release 16.1     16.1     ***
 ANSYS Academic Teaching Advanced                  
 00203145  VERSION=LINUX x64     16:01:42  JUN 12, 2018 CP=     42.289

                                                                               


 
  ***** POST1 NODAL DEGREE OF FREEDOM LISTING *****                            
 
  LOAD STEP=     1  SUBSTEP=     1                                             
   TIME=    1.0000      LOAD CASE=   0                                         
 
    NODE      VOLT  
     781   1299.5    
     782   1294.1    
     783   1284.3    
     784   1269.4    
     785   1250.4    
     786   1228.3    
     787   1203.0    
     788   1174.2    
     789   1140.2    
     790   1100.2    
     791   1052.7    
     792   996.72    
     793   934.90    
     794   863.78    
     795   782.51    
     796   508.40    
     797   6.2881    
     798   8.4582    
     799   4.2420    
     800   2.7088    
     801  0.76697    
     802  0.94417    
     803   1.1019    
     804   1.1496    
     805  0.46004    
     806  0.59153    
     807   1057.9    
     808   130.40    
     809   184.58    
     810   143.98    
     811   135.92    
     812   87.950    
     813   3.4620    
     814   66.546    
     815   28.384    
     816   17.541    
     817   10.162    
     818   4.9146    
     819   2.4686    

 *** ANSYS - ENGINEERING ANALYSIS SYSTEM  RELEASE Release 16.1     16.1     ***
 ANSYS Academic Teaching Advanced                  
 00203145  VERSION=LINUX x64     16:01:42  JUN 12, 2018 CP=     42.291

                                                                               


 
  ***** POST1 NODAL DEGREE OF FREEDOM LISTING *****                            
 
  LOAD STEP=     1  SUBSTEP=     1                                             
   TIME=    1.0000      LOAD CASE=   0                                         
 
    NODE      VOLT  
     820   1.6752    
     821   1.2380    
     822  0.84412    
     823  0.53777    
     824  0.26816    
     825  0.53163E-01
     826   1006.6    
     827   1116.4    
     828   1327.0    
     829   1531.7    
     830   1726.3    
     831   346.32    
     832   263.94    
     833   244.19    
     834   158.91    
     835   189.45    
     836   121.11    
     837   94.564    
     838   87.907    
     839   72.980    
     840   67.013    
     841   833.73    
     842   343.11    
     843   139.22    
     844   57.968    
     845   25.163    
     846   4.5438    
     847   11.290    
     848   1807.8    
     849   1728.9    
     850   1613.8    
     851   1521.4    
     852   1460.0    
     853   1430.2    
     854   1416.2    
     855   1405.4    
     856   1386.4    
     857   1354.2    
     858   1310.9    

 *** ANSYS - ENGINEERING ANALYSIS SYSTEM  RELEASE Release 16.1     16.1     ***
 ANSYS Academic Teaching Advanced                  
 00203145  VERSION=LINUX x64     16:01:42  JUN 12, 2018 CP=     42.291

                                                                               


 
  ***** POST1 NODAL DEGREE OF FREEDOM LISTING *****                            
 
  LOAD STEP=     1  SUBSTEP=     1                                             
   TIME=    1.0000      LOAD CASE=   0                                         
 
    NODE      VOLT  
     859   1253.0    
     860   1172.3    
     861   1063.5    
     862   4.0153    
     863   2.1542    
     864  0.99609    
     865  0.53509    
     866  0.69511    
     867  0.33957    
     868  0.22623    
     869  0.20314    
     870  0.67480E-01
     871  0.15735E-01
     872  0.53863E-02
     873   1386.2    
     874   1365.2    
     875   1526.5    
     876   1443.3    
     877   431.07    
     878   262.59    
     879   72.023    
     880   105.01    
     881   74.441    
     882   109.91    
     883   129.22    
     884   75.727    
     885   91.869    
     886   46.409    
     887   60.495    
     888   1.7505    
     889   1.6860    
     890   1.4208    
     891   1.2891    
     892   38.772    
     893   23.830    
     894   16.080    
     895   12.622    
     896   10.692    
     897   8.6690    

 *** ANSYS - ENGINEERING ANALYSIS SYSTEM  RELEASE Release 16.1     16.1     ***
 ANSYS Academic Teaching Advanced                  
 00203145  VERSION=LINUX x64     16:01:42  JUN 12, 2018 CP=     42.291

                                                                               


 
  ***** POST1 NODAL DEGREE OF FREEDOM LISTING *****                            
 
  LOAD STEP=     1  SUBSTEP=     1                                             
   TIME=    1.0000      LOAD CASE=   0                                         
 
    NODE      VOLT  
     898   6.6232    
     899   4.8143    
     900   4.1020    
     901   3.0986    
     902   2.5293    
     903   2.0700    
     904   1.4797    
     905   1.2328    
     906   1.1512    
     907   1.0887    
     908  0.93505    
     909  0.79350    
     910  0.66612    
     911  0.55061    
     912  0.45036    
     913  0.35512    
     914  0.26737    
     915  0.17824    
     916  0.10194    
     917   1376.7    
     918   1412.0    
     919   1479.3    
     920   1539.5    
     921   1623.4    
     922   1675.0    
     923   1729.8    
     924   1778.1    
     925   1823.4    
     926   1859.2    
     927   1871.0    
     928   174.62    
     929   143.94    
     930   132.73    
     931   136.28    
     932   101.52    
     933   75.362    
     934   61.527    
     935   54.031    
     936   49.958    

 *** ANSYS - ENGINEERING ANALYSIS SYSTEM  RELEASE Release 16.1     16.1     ***
 ANSYS Academic Teaching Advanced                  
 00203145  VERSION=LINUX x64     16:01:42  JUN 12, 2018 CP=     42.293

                                                                               


 
  ***** POST1 NODAL DEGREE OF FREEDOM LISTING *****                            
 
  LOAD STEP=     1  SUBSTEP=     1                                             
   TIME=    1.0000      LOAD CASE=   0                                         
 
    NODE      VOLT  
     937   48.419    
     938   48.396    
     939   44.179    
     940   36.177    
     941   27.955    
     942   919.80    
     943   1175.5    
     944   499.19    
     945   689.91    
     946   235.28    
     947   338.24    
     948   98.009    
     949   145.70    
     950   42.877    
     951   65.622    
     952   18.780    
     953   28.241    
     954   7.1681    
     955   11.722    
     956   1758.6    
     957   1717.0    
     958   1681.1    
     959   1648.7    
     960   1621.9    
     961   1599.8    
     962   1583.4    
     963   1572.4    
     964   1563.4    
     965   1556.7    
     966   1551.7    
     967   1545.9    
     968   1539.4    
     969   1531.0    
     970   1520.5    
     971   1508.2    
     972   1493.7    
     973   1477.5    
     974   1458.4    
     975   1436.6    

 *** ANSYS - ENGINEERING ANALYSIS SYSTEM  RELEASE Release 16.1     16.1     ***
 ANSYS Academic Teaching Advanced                  
 00203145  VERSION=LINUX x64     16:01:42  JUN 12, 2018 CP=     42.293

                                                                               


 
  ***** POST1 NODAL DEGREE OF FREEDOM LISTING *****                            
 
  LOAD STEP=     1  SUBSTEP=     1                                             
   TIME=    1.0000      LOAD CASE=   0                                         
 
    NODE      VOLT  
     976   1411.5    
     977   1381.5    
     978   1346.1    
     979   1297.1    
     980   1253.2    
     981   1176.5    
     982   1.1814    
     983   1.5033    
     984  0.59862    
     985  0.85104    
     986  0.34518    
     987  0.42504    
     988  0.27283    
     989  0.31217    
     990  0.11298    
     991  0.13811    
     992  0.83150E-01
     993  0.44854E-01
     994  0.44049E-01
     995  0.28076E-01
     996  0.11077E-01
     997  0.13186E-01
     998  0.65265E-02
     999  0.30009E-02
    1000  0.38341E-02
    1001  0.20526E-02
    1002  0.11382E-02
    1003  0.11281E-02
    1004  0.29271E-02
    1005  0.76723E-02
    1006  0.31716E-01
    1007  0.12999    
    1008  0.26374    
    1009  0.63046    
    1010  0.70869    
    1011   1.4686    
    1012   3.0577    
    1013   992.27    
    1014   1120.9    

 *** ANSYS - ENGINEERING ANALYSIS SYSTEM  RELEASE Release 16.1     16.1     ***
 ANSYS Academic Teaching Advanced                  
 00203145  VERSION=LINUX x64     16:01:42  JUN 12, 2018 CP=     42.293

                                                                               


 
  ***** POST1 NODAL DEGREE OF FREEDOM LISTING *****                            
 
  LOAD STEP=     1  SUBSTEP=     1                                             
   TIME=    1.0000      LOAD CASE=   0                                         
 
    NODE      VOLT  
    1015   1215.8    
    1016   1284.0    
    1017   1333.9    
    1018   1371.7    
    1019   1397.6    
    1020   1411.2    
    1021   1421.7    
    1022   1442.2    
    1023   1486.0    
    1024   1565.5    
    1025   1666.9    
    1026   7.4225    
    1027   17.618    
    1028   38.688    
    1029   86.812    
    1030   223.16    
    1031   539.78    
    1032   1147.3    
    1033   57.387    
    1034   89.716    
    1035   89.319    
    1036   104.31    
    1037   147.61    
    1038   247.74    
    1039   294.18    
    1040   1807.9    
    1041   1621.6    
    1042   1436.5    
    1043   1216.8    
    1044   1046.2    
    1045  0.40093    
    1046  0.68079    
    1047   1.0323    
    1048   1.4572    
    1049   1.8001    
    1050   3.3926    
    1051   6.8992    
    1052   13.812    
    1053   20.351    

 *** ANSYS - ENGINEERING ANALYSIS SYSTEM  RELEASE Release 16.1     16.1     ***
 ANSYS Academic Teaching Advanced                  
 00203145  VERSION=LINUX x64     16:01:42  JUN 12, 2018 CP=     42.294

                                                                               


 
  ***** POST1 NODAL DEGREE OF FREEDOM LISTING *****                            
 
  LOAD STEP=     1  SUBSTEP=     1                                             
   TIME=    1.0000      LOAD CASE=   0                                         
 
    NODE      VOLT  
    1054   42.245    
    1055   2.6463    
    1056   4.7771    
    1057   67.480    
    1058   110.33    
    1059   163.89    
    1060   98.447    
    1061   416.19    
    1062   1004.6    
    1063  0.43378    
    1064   250.78    
    1065   175.62    
    1066  0.68560    
    1067   1.7229    
    1068   1.2423    
    1069   4.6303    
    1070   13.253    
    1071   604.54    
    1072   771.28    
    1073   909.21    
    1074   1016.1    
    1075   1091.0    
    1076   1146.2    
    1077   1188.8    
    1078   1207.5    
    1079   1207.7    
    1080   1217.2    
    1081   1243.4    
    1082   1334.2    
    1083   1485.9    
    1084   36.949    
    1085   89.153    
    1086   229.05    
    1087   540.75    
    1088   124.77    
    1089   140.47    
    1090   160.11    
    1091   184.43    
    1092   421.32    

 *** ANSYS - ENGINEERING ANALYSIS SYSTEM  RELEASE Release 16.1     16.1     ***
 ANSYS Academic Teaching Advanced                  
 00203145  VERSION=LINUX x64     16:01:42  JUN 12, 2018 CP=     42.295

                                                                               


 
  ***** POST1 NODAL DEGREE OF FREEDOM LISTING *****                            
 
  LOAD STEP=     1  SUBSTEP=     1                                             
   TIME=    1.0000      LOAD CASE=   0                                         
 
    NODE      VOLT  
    1093   1290.5    
    1094   987.89    
    1095   697.85    
    1096   1.0943    
    1097   1.7133    
    1098   2.7255    
    1099   5.1888    
    1100   13.066    
    1101   33.652    
    1102   193.93    
    1103   307.79    
    1104   270.26    
    1105   386.93    
    1106   491.06    
    1107   310.25    
    1108   101.59    
    1109   2.7278    
    1110   648.11    
    1111   808.06    
    1112   905.66    
    1113   971.06    
    1114   1025.2    
    1115   1077.7    
    1116   1048.1    
    1117   1026.2    
    1118   1054.7    
    1119   1023.6    
    1120   160.27    
    1121   195.32    
    1122   232.47    
    1123   535.01    
    1124   615.20    
    1125   189.76    
    1126   279.30    
    1127   328.29    
    1128   381.05    
    1129   492.87    
    1130   479.00    
    1131   667.40    

 *** ANSYS - ENGINEERING ANALYSIS SYSTEM  RELEASE Release 16.1     16.1     ***
 ANSYS Academic Teaching Advanced                  
 00203145  VERSION=LINUX x64     16:01:42  JUN 12, 2018 CP=     42.295

                                                                               


 
  ***** POST1 NODAL DEGREE OF FREEDOM LISTING *****                            
 
  LOAD STEP=     1  SUBSTEP=     1                                             
   TIME=    1.0000      LOAD CASE=   0                                         
 
    NODE      VOLT  
    1132   758.30    
    1133   843.70    
    1134   874.33    
    1135   938.82    
    1136   862.00    
    1137   802.48    
    1138   214.86    
    1139   269.21    
    1140   627.95    
    1141   391.44    
    1142   457.59    
    1143   608.84    
    1144   740.72    
    1145   767.66    
    1146   612.57    
    1147   30.477    
    1148   799.62    
    1149   32.972    
    1150   2.7181    
    1151  0.11863E-01
    1152   35.759    
    1153   32.834    
    1154   41.440    
    1155   72.445    
    1156   71.277    
    1157   27.411    
    1158   22.999    
    1159   25.424    
    1160   46.229    
    1161   55.615    
    1162   50.370    
    1163   58.075    
    1164   70.139    
    1165   69.025    
    1166   44.697    
    1167   32.160    
    1168   40.311    
    1169   37.137    
    1170   29.380    

 *** ANSYS - ENGINEERING ANALYSIS SYSTEM  RELEASE Release 16.1     16.1     ***
 ANSYS Academic Teaching Advanced                  
 00203145  VERSION=LINUX x64     16:01:42  JUN 12, 2018 CP=     42.295

                                                                               


 
  ***** POST1 NODAL DEGREE OF FREEDOM LISTING *****                            
 
  LOAD STEP=     1  SUBSTEP=     1                                             
   TIME=    1.0000      LOAD CASE=   0                                         
 
    NODE      VOLT  
    1171   0.0000    
    1172   13.057    
    1173   8.6981    
    1174   0.0000    
    1175   11.005    
    1176   19.015    
    1177   29.431    
    1178   26.527    
    1179   21.803    
    1180   27.318    
    1181   15.889    
    1182   18.993    
    1183   39.145    
    1184   53.791    
    1185   55.376    
    1186   64.644    
    1187   46.079    
    1188   21.976    
    1189   24.787    
    1190   71.652    
    1191   51.046    
    1192   43.603    
    1193   62.705    
    1194   56.305    
    1195   67.370    
    1196   46.413    
    1197   67.934    
    1198   66.863    
    1199   58.996    
    1200   52.738    
    1201   45.987    
    1202   15.624    
    1203   17.492    
    1204   11.981    
    1205   23.551    
    1206   65.809    
    1207   64.771    
    1208   5.8473    
    1209   12.292    

 *** ANSYS - ENGINEERING ANALYSIS SYSTEM  RELEASE Release 16.1     16.1     ***
 ANSYS Academic Teaching Advanced                  
 00203145  VERSION=LINUX x64     16:01:42  JUN 12, 2018 CP=     42.297

                                                                               


 
  ***** POST1 NODAL DEGREE OF FREEDOM LISTING *****                            
 
  LOAD STEP=     1  SUBSTEP=     1                                             
   TIME=    1.0000      LOAD CASE=   0                                         
 
    NODE      VOLT  
    1210   16.637    
    1211   0.0000    
    1212   5.2567    
    1213   7.6992    
    1214   0.0000    
    1215   23.807    
    1216   20.062    
    1217   41.654    
    1218   37.132    
    1219   0.0000    
    1220   108.40    
    1221   74.590    
    1222   0.0000    
    1223   144.78    
    1224   225.11    
    1225   334.92    
    1226   253.97    
    1227   233.35    
    1228   322.37    
    1229   143.06    
    1230   171.67    
    1231   417.20    
    1232   716.78    
    1233   632.77    
    1234   781.03    
    1235   508.01    
    1236   199.73    
    1237   227.48    
    1238   967.79    
    1239   780.16    
    1240   634.82    
    1241   1044.1    
    1242   1000.4    
    1243   901.00    
    1244   1048.0    
    1245   462.07    
    1246   429.35    
    1247   1305.4    
    1248   1220.2    

 *** ANSYS - ENGINEERING ANALYSIS SYSTEM  RELEASE Release 16.1     16.1     ***
 ANSYS Academic Teaching Advanced                  
 00203145  VERSION=LINUX x64     16:01:42  JUN 12, 2018 CP=     42.297

                                                                               


 
  ***** POST1 NODAL DEGREE OF FREEDOM LISTING *****                            
 
  LOAD STEP=     1  SUBSTEP=     1                                             
   TIME=    1.0000      LOAD CASE=   0                                         
 
    NODE      VOLT  
    1249   1194.7    
    1250   1527.3    
    1251   1375.7    
    1252   1403.0    
    1253   1615.7    
    1254   1705.7    
    1255   1550.3    
    1256   1452.0    
    1257   1492.5    
    1258   1815.5    
    1259   1813.8    
    1260   1523.3    
    1261   1711.7    
    1262   1587.5    
    1263   1629.8    
    1264   1564.8    
    1265   1750.8    
    1266   1812.1    
    1267   1810.4    
    1268   1614.2    
    1269   1691.2    
    1270   1633.5    
    1271   1652.6    
    1272   1622.5    
    1273   1808.8    
    1274   1807.2    
    1275   1653.8    
    1276   1782.6    
    1277   1771.3    
    1278   1672.7    
    1279   1720.9    
    1280   1798.3    
    1281   1809.4    
    1282   1673.3    
    1283   1778.0    
    1284   1733.3    
    1285   1680.9    
    1286   1693.7    
    1287   1805.7    

 *** ANSYS - ENGINEERING ANALYSIS SYSTEM  RELEASE Release 16.1     16.1     ***
 ANSYS Academic Teaching Advanced                  
 00203145  VERSION=LINUX x64     16:01:42  JUN 12, 2018 CP=     42.297

                                                                               


 
  ***** POST1 NODAL DEGREE OF FREEDOM LISTING *****                            
 
  LOAD STEP=     1  SUBSTEP=     1                                             
   TIME=    1.0000      LOAD CASE=   0                                         
 
    NODE      VOLT  
    1288   1804.2    
    1289   1693.1    
    1290   1800.0    
    1291   1708.9    
    1292   1736.9    
    1293   1696.9    
    1294   1805.9    
    1295   1802.7    
    1296   1801.3    
    1297   1707.2    
    1298   1716.9    
    1299   1752.8    
    1300   1814.8    
    1301   1821.2    
    1302   1761.0    
    1303   1717.3    
    1304   1726.8    
    1305   1799.9    
    1306   1798.5    
    1307   1726.3    
    1308   1817.6    
    1309   1733.1    
    1310   1762.5    
    1311   1733.0    
    1312   1819.0    
    1313   1797.1    
    1314   1795.7    
    1315   1741.1    
    1316   1777.7    
    1317   1746.7    
    1318   1745.5    
    1319   1740.6    
    1320   1794.4    
    1321   1793.1    
    1322   1748.4    
    1323   1825.9    
    1324   1831.6    
    1325   1757.3    
    1326   1785.2    

 *** ANSYS - ENGINEERING ANALYSIS SYSTEM  RELEASE Release 16.1     16.1     ***
 ANSYS Academic Teaching Advanced                  
 00203145  VERSION=LINUX x64     16:01:42  JUN 12, 2018 CP=     42.299

                                                                               


 
  ***** POST1 NODAL DEGREE OF FREEDOM LISTING *****                            
 
  LOAD STEP=     1  SUBSTEP=     1                                             
   TIME=    1.0000      LOAD CASE=   0                                         
 
    NODE      VOLT  
    1327   1757.1    
    1328   1836.4    
    1329   1791.7    
    1330   1790.4    
    1331   1763.4    
    1332   1791.5    
    1333   1765.0    
    1334   1772.2    
    1335   1762.4    
    1336   1789.2    
    1337   1787.9    
    1338   1770.4    
    1339   1837.5    
    1340   1833.9    
    1341   1778.6    
    1342   1800.9    
    1343   1842.4    
    1344   1847.5    
    1345   1791.2    
    1346   1840.6    
    1347   1807.2    
    1348   1780.1    
    1349   1785.1    
    1350   1786.7    
    1351   1785.5    
    1352   1786.4    
    1353   1846.5    
    1354   1792.6    
    1355   1809.9    
    1356   1791.8    
    1357   1846.6    
    1358   1784.4    
    1359   1783.3    
    1360   1795.8    
    1361   1803.9    
    1362   1821.1    
    1363   1855.1    
    1364   1862.8    
    1365   1833.7    

 *** ANSYS - ENGINEERING ANALYSIS SYSTEM  RELEASE Release 16.1     16.1     ***
 ANSYS Academic Teaching Advanced                  
 00203145  VERSION=LINUX x64     16:01:42  JUN 12, 2018 CP=     42.299

                                                                               


 
  ***** POST1 NODAL DEGREE OF FREEDOM LISTING *****                            
 
  LOAD STEP=     1  SUBSTEP=     1                                             
   TIME=    1.0000      LOAD CASE=   0                                         
 
    NODE      VOLT  
    1366   1808.4    
    1367   1817.6    
    1368   1782.2    
    1369   1781.1    
    1370   1822.7    
    1371   1864.1    
    1372   1842.3    
    1373   1845.4    
    1374   1833.7    
    1375   1869.7    
    1376   1780.0    
    1377   1779.0    
    1378   1848.7    
    1379   1772.9    
    1380   1827.0    
    1381   1877.1    
    1382   1867.3    
    1383   1876.9    
    1384   1860.0    
    1385   1777.9    
    1386   1776.9    
    1387   1889.0    
    1388   1883.5    
    1389   1875.7    
    1390   1900.0    
    1391   1892.5    
    1392   1893.2    
    1393   1900.0    
    1394   1856.4    
    1395   1855.4    
    1396   1866.4    
    1397   1869.7    
    1398   1863.7    
    1399   1870.9    
    1400  0.11447E-02
    1401  0.46016E-03
    1402  0.47182E-03
    1403  0.41944E-03
    1404   0.0000    

 *** ANSYS - ENGINEERING ANALYSIS SYSTEM  RELEASE Release 16.1     16.1     ***
 ANSYS Academic Teaching Advanced                  
 00203145  VERSION=LINUX x64     16:01:42  JUN 12, 2018 CP=     42.299

                                                                               


 
  ***** POST1 NODAL DEGREE OF FREEDOM LISTING *****                            
 
  LOAD STEP=     1  SUBSTEP=     1                                             
   TIME=    1.0000      LOAD CASE=   0                                         
 
    NODE      VOLT  
    1405   0.0000    
    1406  0.51002E-03
    1407  0.18265E-02
    1408  0.19518E-02
    1409  0.14938E-02
    1410  0.66475E-03
    1411  0.93373E-03
    1412   0.0000    
    1413   0.0000    
    1414  0.10930E-02
    1415  0.25346E-02
    1416  0.34195E-02
    1417  0.15312E-02
    1418  0.17757E-02
    1419  0.12914E-02
    1420   0.0000    
    1421   0.0000    
    1422  0.18972E-02
    1423  0.57675E-02
    1424  0.52198E-02
    1425  0.48769E-02
    1426  0.23533E-02
    1427  0.32390E-02
    1428   0.0000    
    1429   0.0000    
    1430  0.39051E-02
    1431  0.75631E-02
    1432  0.13070E-01
    1433  0.59154E-02
    1434  0.65072E-02
    1435  0.49247E-02
    1436   0.0000    
    1437   0.0000    
    1438  0.65976E-02
    1439  0.22008E-01
    1440  0.19142E-01
    1441  0.20137E-01
    1442  0.92835E-02
    1443  0.12613E-01

 *** ANSYS - ENGINEERING ANALYSIS SYSTEM  RELEASE Release 16.1     16.1     ***
 ANSYS Academic Teaching Advanced                  
 00203145  VERSION=LINUX x64     16:01:42  JUN 12, 2018 CP=     42.300

                                                                               


 
  ***** POST1 NODAL DEGREE OF FREEDOM LISTING *****                            
 
  LOAD STEP=     1  SUBSTEP=     1                                             
   TIME=    1.0000      LOAD CASE=   0                                         
 
    NODE      VOLT  
    1444   0.0000    
    1445   0.0000    
    1446  0.16333E-01
    1447  0.33104E-01
    1448  0.49359E-01
    1449  0.22935E-01
    1450  0.22928E-01
    1451  0.20207E-01
    1452   0.0000    
    1453   0.0000    
    1454  0.21420E-01
    1455  0.79849E-01
    1456  0.76580E-01
    1457  0.64172E-01
    1458  0.28118E-01
    1459  0.36926E-01
    1460   0.0000    
    1461   0.0000    
    1462  0.45239E-01
    1463  0.11243    
    1464  0.12448    
    1465  0.58415E-01
    1466  0.63694E-01
    1467  0.52430E-01
    1468   0.0000    
    1469   0.0000    
    1470  0.70292E-01
    1471  0.20037    
    1472  0.18236    
    1473  0.29336    
    1474  0.13708    
    1475  0.14665    
    1476  0.12634    
    1477   0.0000    
    1478   0.0000    
    1479  0.15593    
    1480  0.46700    
    1481  0.43955    
    1482  0.37324    

 *** ANSYS - ENGINEERING ANALYSIS SYSTEM  RELEASE Release 16.1     16.1     ***
 ANSYS Academic Teaching Advanced                  
 00203145  VERSION=LINUX x64     16:01:42  JUN 12, 2018 CP=     42.301

                                                                               


 
  ***** POST1 NODAL DEGREE OF FREEDOM LISTING *****                            
 
  LOAD STEP=     1  SUBSTEP=     1                                             
   TIME=    1.0000      LOAD CASE=   0                                         
 
    NODE      VOLT  
    1483  0.17817    
    1484  0.19766    
    1485  0.16439    
    1486   0.0000    
    1487   0.0000    
    1488  0.23148    
    1489  0.58779    
    1490  0.53453    
    1491  0.71080    
    1492  0.32000    
    1493  0.38082    
    1494  0.27011    
    1495   0.0000    
    1496   0.0000    
    1497  0.45519    
    1498   1.1950    
    1499  0.98920    
    1500   1.3450    
    1501  0.59984    
    1502  0.66748    
    1503  0.52732    
    1504   0.0000    
    1505   0.0000    
    1506  0.72859    
    1507   2.2942    
    1508   1.9991    
    1509   1218.6    
    1510   1379.4    
    1511   1347.5    
    1512   1407.1    
    1513   1312.8    
    1514   1073.0    
    1515   1116.4    
    1516   1323.0    
    1517   1461.5    
    1518   1442.2    
    1519   1478.6    
    1520   1420.3    
    1521   1199.2    

 *** ANSYS - ENGINEERING ANALYSIS SYSTEM  RELEASE Release 16.1     16.1     ***
 ANSYS Academic Teaching Advanced                  
 00203145  VERSION=LINUX x64     16:01:42  JUN 12, 2018 CP=     42.301

                                                                               


 
  ***** POST1 NODAL DEGREE OF FREEDOM LISTING *****                            
 
  LOAD STEP=     1  SUBSTEP=     1                                             
   TIME=    1.0000      LOAD CASE=   0                                         
 
    NODE      VOLT  
    1522   1227.0    
    1523   1397.2    
    1524   1516.9    
    1525   1505.6    
    1526   1528.3    
    1527   1491.7    
    1528   1290.7    
    1529   1308.7    
    1530   1447.9    
    1531   1555.7    
    1532   1547.3    
    1533   1563.9    
    1534   1537.7    
    1535   1353.6    
    1536   1366.3    
    1537   1485.9    
    1538   1584.5    
    1539   1578.5    
    1540   1590.9    
    1541   1571.2    
    1542   1399.4    
    1543   1409.3    
    1544   1514.5    
    1545   1606.4    
    1546   1602.1    
    1547   1611.9    
    1548   1596.2    
    1549   1434.5    
    1550   1441.6    
    1551   1535.2    
    1552   1623.7    
    1553   1620.5    
    1554   1627.7    
    1555   1615.3    
    1556   1459.4    
    1557   1463.9    
    1558   1548.7    
    1559   1636.1    
    1560   1633.9    

 *** ANSYS - ENGINEERING ANALYSIS SYSTEM  RELEASE Release 16.1     16.1     ***
 ANSYS Academic Teaching Advanced                  
 00203145  VERSION=LINUX x64     16:01:42  JUN 12, 2018 CP=     42.301

                                                                               


 
  ***** POST1 NODAL DEGREE OF FREEDOM LISTING *****                            
 
  LOAD STEP=     1  SUBSTEP=     1                                             
   TIME=    1.0000      LOAD CASE=   0                                         
 
    NODE      VOLT  
    1561   1639.7    
    1562   1628.9    
    1563   1474.0    
    1564   1476.8    
    1565   1559.9    
    1566   1647.4    
    1567   1645.0    
    1568   1651.4    
    1569   1641.5    
    1570   1484.6    
    1571   1488.1    
    1572   1577.3    
    1573   1663.3    
    1574   1659.7    
    1575   1668.7    
    1576   1654.4    
    1577   1502.7    
    1578   1509.1    
    1579   1610.8    
    1580   1690.8    
    1581   1682.6    
    1582   1699.4    
    1583   1675.0    
    1584   1538.2    
    1585   1551.7    
    1586   1664.5    
    1587   1730.9    
    1588   1718.8    
    1589   1743.7    
    1590   1708.8    
    1591   1602.5    
    1592   1621.9    
    1593   1736.4    
    1594   1785.5    
    1595   1770.4    
    1596   1802.9    
    1597   1756.3    
    1598   1687.8    
    1599   1712.2    

 *** ANSYS - ENGINEERING ANALYSIS SYSTEM  RELEASE Release 16.1     16.1     ***
 ANSYS Academic Teaching Advanced                  
 00203145  VERSION=LINUX x64     16:01:42  JUN 12, 2018 CP=     42.303

                                                                               


 
  ***** POST1 NODAL DEGREE OF FREEDOM LISTING *****                            
 
  LOAD STEP=     1  SUBSTEP=     1                                             
   TIME=    1.0000      LOAD CASE=   0                                         
 
    NODE      VOLT  
    1600   9.1900    
    1601   8.7573    
    1602   11.330    
    1603   6.8138    
    1604   1167.4    
    1605   1124.0    
    1606   14.749    
    1607   9.3551    
    1608   7.4002    
    1609   22.859    
    1610   23.154    
    1611   28.637    
    1612   19.367    
    1613   1083.9    
    1614   1046.5    
    1615   35.838    
    1616   22.230    
    1617   18.177    
    1618   52.192    
    1619   53.240    
    1620   66.984    
    1621   45.634    
    1622   1011.7    
    1623   978.31    
    1624   82.474    
    1625   50.010    
    1626   41.542    
    1627   118.88    
    1628   120.93    
    1629   145.65    
    1630   102.79    
    1631   947.21    
    1632   918.11    
    1633   179.73    
    1634   113.93    
    1635   92.122    
    1636   281.04    
    1637   267.94    
    1638   318.17    

 *** ANSYS - ENGINEERING ANALYSIS SYSTEM  RELEASE Release 16.1     16.1     ***
 ANSYS Academic Teaching Advanced                  
 00203145  VERSION=LINUX x64     16:01:42  JUN 12, 2018 CP=     42.303

                                                                               


 
  ***** POST1 NODAL DEGREE OF FREEDOM LISTING *****                            
 
  LOAD STEP=     1  SUBSTEP=     1                                             
   TIME=    1.0000      LOAD CASE=   0                                         
 
    NODE      VOLT  
    1639   230.36    
    1640   890.91    
    1641   864.77    
    1642   386.26    
    1643   281.97    
    1644   231.09    
    1645   587.28    
    1646   534.00    
    1647   620.99    
    1648   465.62    
    1649   840.25    
    1650   816.86    
    1651   735.26    
    1652   627.22    
    1653   520.49    
    1654   1033.6    
    1655   947.74    
    1656   1063.4    
    1657   841.93    
    1658   794.83    
    1659   773.93    
    1660   1214.1    
    1661   1144.1    
    1662   1015.9    
    1663   32.004    
    1664   18.077    
    1665   15.614    
    1666   20.367    
    1667   0.0000    
    1668   0.0000    
    1669   13.986    
    1670   42.535    
    1671   48.426    
    1672   46.998    
    1673   25.154    
    1674   24.046    
    1675   25.833    
    1676   0.0000    
    1677   0.0000    

 *** ANSYS - ENGINEERING ANALYSIS SYSTEM  RELEASE Release 16.1     16.1     ***
 ANSYS Academic Teaching Advanced                  
 00203145  VERSION=LINUX x64     16:01:42  JUN 12, 2018 CP=     42.303

                                                                               


 
  ***** POST1 NODAL DEGREE OF FREEDOM LISTING *****                            
 
  LOAD STEP=     1  SUBSTEP=     1                                             
   TIME=    1.0000      LOAD CASE=   0                                         
 
    NODE      VOLT  
    1678   22.618    
    1679   65.974    
    1680   69.174    
    1681   49.060    
    1682   25.971    
    1683   26.254    
    1684   26.396    
    1685   0.0000    
    1686   0.0000    
    1687   25.045    
    1688   69.631    
    1689   70.735    
    1690   57.127    
    1691   30.973    
    1692   28.888    
    1693   33.593    
    1694   0.0000    
    1695   0.0000    
    1696   27.570    
    1697   79.600    
    1698   84.725    
    1699   85.914    
    1700   50.059    
    1701   42.285    
    1702   65.101    
    1703   0.0000    
    1704   0.0000    
    1705   37.212    
    1706   112.53    
    1707   127.82    
    1708   132.47    
    1709   67.408    
    1710   69.542    
    1711   68.741    
    1712   0.0000    
    1713   0.0000    
    1714   78.698    
    1715   191.77    
    1716   193.16    

 *** ANSYS - ENGINEERING ANALYSIS SYSTEM  RELEASE Release 16.1     16.1     ***
 ANSYS Academic Teaching Advanced                  
 00203145  VERSION=LINUX x64     16:01:42  JUN 12, 2018 CP=     42.305

                                                                               


 
  ***** POST1 NODAL DEGREE OF FREEDOM LISTING *****                            
 
  LOAD STEP=     1  SUBSTEP=     1                                             
   TIME=    1.0000      LOAD CASE=   0                                         
 
    NODE      VOLT  
    1717   155.19    
    1718   84.954    
    1719   77.603    
    1720   105.36    
    1721   0.0000    
    1722   0.0000    
    1723   70.257    
    1724   218.93    
    1725   236.86    
    1726   1862.2    
    1727   1880.2    
    1728   1883.6    
    1729   1879.1    
    1730   1900.0    
    1731   1900.0    
    1732   1888.5    
    1733   1845.7    
    1734   1835.3    
    1735   1842.7    
    1736   1864.1    
    1737   1872.7    
    1738   1853.8    
    1739   1900.0    
    1740   1900.0    
    1741   1807.7    
    1742   1754.1    
    1743   1818.6    
    1744   1830.7    
    1745   1806.1    
    1746   1900.0    
    1747   1900.0    
    1748   1842.1    
    1749   1702.5    
    1750   1672.1    
    1751   1647.9    
    1752   1761.2    
    1753   1777.7    
    1754   1749.4    
    1755   1900.0    

 *** ANSYS - ENGINEERING ANALYSIS SYSTEM  RELEASE Release 16.1     16.1     ***
 ANSYS Academic Teaching Advanced                  
 00203145  VERSION=LINUX x64     16:01:42  JUN 12, 2018 CP=     42.305

                                                                               


 
  ***** POST1 NODAL DEGREE OF FREEDOM LISTING *****                            
 
  LOAD STEP=     1  SUBSTEP=     1                                             
   TIME=    1.0000      LOAD CASE=   0                                         
 
    NODE      VOLT  
    1756   1900.0    
    1757   1789.6    
    1758   1557.3    
    1759   1519.5    
    1760   1505.1    
    1761   1677.0    
    1762   1692.7    
    1763   1663.8    
    1764   1900.0    
    1765   1900.0    
    1766   1718.9    
    1767   1372.4    
    1768   1331.1    
    1769   1391.2    
    1770   1612.2    
    1771   1625.7    
    1772   1604.7    
    1773   1900.0    
    1774   1900.0    
    1775   1642.0    
    1776   1219.4    
    1777   1193.5    
    1778  0.13716    
    1779  0.11621    
    1780  0.89710E-01
    1781  0.14501    
    1782   0.0000    
    1783   0.0000    
    1784  0.67858E-01
    1785  0.12327    
    1786  0.16932    
    1787  0.31028    
    1788  0.23081    
    1789  0.20207    
    1790  0.25980    
    1791   0.0000    
    1792   0.0000    
    1793  0.17522    
    1794  0.33887    

 *** ANSYS - ENGINEERING ANALYSIS SYSTEM  RELEASE Release 16.1     16.1     ***
 ANSYS Academic Teaching Advanced                  
 00203145  VERSION=LINUX x64     16:01:42  JUN 12, 2018 CP=     42.305

                                                                               


 
  ***** POST1 NODAL DEGREE OF FREEDOM LISTING *****                            
 
  LOAD STEP=     1  SUBSTEP=     1                                             
   TIME=    1.0000      LOAD CASE=   0                                         
 
    NODE      VOLT  
    1795  0.39408    
    1796  0.49900    
    1797  0.35523    
    1798  0.32176    
    1799  0.39050    
    1800   0.0000    
    1801   0.0000    
    1802  0.28995    
    1803  0.57343    
    1804  0.63631    
    1805  0.72823    
    1806  0.50698    
    1807  0.46612    
    1808  0.55038    
    1809   0.0000    
    1810   0.0000    
    1811  0.42729    
    1812  0.85683    
    1813  0.94000    
    1814   1.0096    
    1815  0.69017    
    1816  0.64268    
    1817  0.74503    
    1818   0.0000    
    1819   0.0000    
    1820  0.59481    
    1821   1.2072    
    1822   1.2995    
    1823   1.1881    
    1824  0.75666    
    1825  0.74771    
    1826  0.78679    
    1827   0.0000    
    1828   0.0000    
    1829  0.73609    
    1830   1.4932    
    1831   1.5495    
    1832   1.3272    
    1833  0.91218    

 *** ANSYS - ENGINEERING ANALYSIS SYSTEM  RELEASE Release 16.1     16.1     ***
 ANSYS Academic Teaching Advanced                  
 00203145  VERSION=LINUX x64     16:01:42  JUN 12, 2018 CP=     42.306

                                                                               


 
  ***** POST1 NODAL DEGREE OF FREEDOM LISTING *****                            
 
  LOAD STEP=     1  SUBSTEP=     1                                             
   TIME=    1.0000      LOAD CASE=   0                                         
 
    NODE      VOLT  
    1834  0.84724    
    1835   1.0335    
    1836   0.0000    
    1837   0.0000    
    1838   1.6995    
    1839   2.3424    
    1840   1.5847    
    1841   1.4684    
    1842   1.7113    
    1843   0.0000    
    1844   0.0000    
    1845   1.2407    
    1846   2.7323    
    1847   3.0416    
    1848   2.7898    
    1849   2.0793    
    1850   1.8741    
    1851   2.2831    
    1852   0.0000    
    1853   0.0000    
    1854   3.4034    
    1855   4.5404    
    1856   3.0276    
    1857   2.8311    
    1858   3.2227    
    1859   0.0000    
    1860   0.0000    
    1861   2.5767    
    1862   5.5240    
    1863   6.1136    
    1864   5.6377    
    1865   4.4089    
    1866   3.7125    
    1867   4.9224    
    1868   0.0000    
    1869   0.0000    
    1870   7.0094    
    1871   9.6547    
    1872   6.5769    

 *** ANSYS - ENGINEERING ANALYSIS SYSTEM  RELEASE Release 16.1     16.1     ***
 ANSYS Academic Teaching Advanced                  
 00203145  VERSION=LINUX x64     16:01:42  JUN 12, 2018 CP=     42.307

                                                                               


 
  ***** POST1 NODAL DEGREE OF FREEDOM LISTING *****                            
 
  LOAD STEP=     1  SUBSTEP=     1                                             
   TIME=    1.0000      LOAD CASE=   0                                         
 
    NODE      VOLT  
    1873   6.1518    
    1874   7.1049    
    1875   0.0000    
    1876   0.0000    
    1877   5.5067    
    1878   11.224    
    1879   12.684    
    1880   13.874    
    1881   9.1095    
    1882   8.1301    
    1883   11.060    
    1884   0.0000    
    1885   0.0000    
    1886   7.6161    
    1887   16.857    
    1888   18.764    
    1889   29.734    
    1890   20.305    
    1891   16.950    
    1892   36.312    
    1893   0.0000    
    1894   0.0000    
    1895   13.250    
    1896   33.224    
    1897   41.936    
    1898   1.3259    
    1899  0.66304    
    1900  0.63179    
    1901  0.70539    
    1902   0.0000    
    1903   0.0000    
    1904  0.62460    
    1905   1.9699    
    1906   2.0907    
    1907   1.7690    
    1908  0.79898    
    1909  0.79732    
    1910  0.77685    
    1911   0.0000    

 *** ANSYS - ENGINEERING ANALYSIS SYSTEM  RELEASE Release 16.1     16.1     ***
 ANSYS Academic Teaching Advanced                  
 00203145  VERSION=LINUX x64     16:01:42  JUN 12, 2018 CP=     42.307

                                                                               


 
  ***** POST1 NODAL DEGREE OF FREEDOM LISTING *****                            
 
  LOAD STEP=     1  SUBSTEP=     1                                             
   TIME=    1.0000      LOAD CASE=   0                                         
 
    NODE      VOLT  
    1912   0.0000    
    1913  0.75458    
    1914   2.9038    
    1915   3.0064    
    1916   53.474    
    1917   43.357    
    1918   49.258    
    1919   37.186    
    1920   54.791    
    1921   64.766    
    1922   56.365    
    1923   83.554    
    1924   66.790    
    1925   72.705    
    1926   60.808    
    1927   79.092    
    1928   102.24    
    1929   92.191    
    1930   119.47    
    1931   91.939    
    1932   100.29    
    1933   85.549    
    1934   108.45    
    1935   147.07    
    1936   136.06    
    1937   89.674    
    1938   84.421    
    1939   70.351    
    1940   99.437    
    1941   55.169    
    1942   90.878    
    1943   105.01    
    1944   75.241    
    1945   54.033    
    1946   52.170    
    1947   50.454    
    1948   87.358    
    1949   339.02    
    1950   346.00    

 *** ANSYS - ENGINEERING ANALYSIS SYSTEM  RELEASE Release 16.1     16.1     ***
 ANSYS Academic Teaching Advanced                  
 00203145  VERSION=LINUX x64     16:01:42  JUN 12, 2018 CP=     42.307

                                                                               


 
  ***** POST1 NODAL DEGREE OF FREEDOM LISTING *****                            
 
  LOAD STEP=     1  SUBSTEP=     1                                             
   TIME=    1.0000      LOAD CASE=   0                                         
 
    NODE      VOLT  
    1951   247.28    
    1952   453.49    
    1953   160.55    
    1954   344.62    
    1955   419.34    
    1956   1482.5    
    1957   1689.0    
    1958   1663.9    
    1959   1706.8    
    1960   1900.0    
    1961   1900.0    
    1962   1643.4    
    1963   1282.6    
    1964   1348.5    
    1965   1370.7    
    1966   1611.3    
    1967   1605.7    
    1968   1623.6    
    1969   1900.0    
    1970   1900.0    
    1971   1602.2    
    1972   1169.6    
    1973   1181.2    
    1974  0.42605E-02
    1975  0.34222E-02
    1976  0.25030E-02
    1977  0.40475E-02
    1978  0.66790E-02
    1979  0.14607E-01
    1980  0.10736E-01
    1981  0.86391E-02
    1982  0.10963E-01
    1983  0.22390E-01
    1984  0.61102E-01
    1985  0.45999E-01
    1986  0.36566E-01
    1987  0.48159E-01
    1988  0.92066E-01
    1989  0.16183    

 *** ANSYS - ENGINEERING ANALYSIS SYSTEM  RELEASE Release 16.1     16.1     ***
 ANSYS Academic Teaching Advanced                  
 00203145  VERSION=LINUX x64     16:01:42  JUN 12, 2018 CP=     42.309

                                                                               


 
  ***** POST1 NODAL DEGREE OF FREEDOM LISTING *****                            
 
  LOAD STEP=     1  SUBSTEP=     1                                             
   TIME=    1.0000      LOAD CASE=   0                                         
 
    NODE      VOLT  
    1990  0.13974    
    1991  0.98894E-01
    1992  0.17239    
    1993  0.23254    
    1994  0.51222    
    1995  0.49481    
    1996  0.32830    
    1997  0.66772    
    1998  0.71117    
    1999  0.37061    
    2000  0.25049    
    2001  0.40627    
    2002  0.11316    
    2003  0.58420    
    2004  0.48425    
    2005  0.33461    
    2006  0.82708    
    2007  0.69005    
    2008  0.50271    
    2009  0.82535    
    2010   1.2078    
    2011   1.7003    
    2012   1.4293    
    2013   1.0107    
    2014   1.7774    
    2015   2.5835    
    2016   2.8443    
    2017   2.5804    
    2018   1.6475    
    2019   3.5349    
    2020   4.4469    
    2021   1175.5    
    2022   1277.6    
    2023   1148.7    
    2024   1030.3    
    2025   1093.3    
    2026   1271.8    
    2027   1364.8    
    2028   1250.4    

 *** ANSYS - ENGINEERING ANALYSIS SYSTEM  RELEASE Release 16.1     16.1     ***
 ANSYS Academic Teaching Advanced                  
 00203145  VERSION=LINUX x64     16:01:42  JUN 12, 2018 CP=     42.309

                                                                               


 
  ***** POST1 NODAL DEGREE OF FREEDOM LISTING *****                            
 
  LOAD STEP=     1  SUBSTEP=     1                                             
   TIME=    1.0000      LOAD CASE=   0                                         
 
    NODE      VOLT  
    2029   1147.8    
    2030   1195.1    
    2031   1340.1    
    2032   1424.6    
    2033   1325.0    
    2034   1235.2    
    2035   1269.0    
    2036   1389.6    
    2037   1468.3    
    2038   1378.3    
    2039   1298.0    
    2040   1322.7    
    2041   1427.0    
    2042   1501.1    
    2043   1418.2    
    2044   1344.5    
    2045   1363.4    
    2046   1454.2    
    2047   1525.8    
    2048   1448.1    
    2049   1379.4    
    2050   1392.4    
    2051   1471.1    
    2052   1542.6    
    2053   1467.4    
    2054   1402.0    
    2055   1408.4    
    2056   1482.0    
    2057   1554.1    
    2058   1479.6    
    2059   1413.8    
    2060   1418.6    
    2061   1497.1    
    2062   1567.1    
    2063   1492.1    
    2064   1425.5    
    2065   1435.6    
    2066   1527.0    
    2067   1591.1    

 *** ANSYS - ENGINEERING ANALYSIS SYSTEM  RELEASE Release 16.1     16.1     ***
 ANSYS Academic Teaching Advanced                  
 00203145  VERSION=LINUX x64     16:01:42  JUN 12, 2018 CP=     42.309

                                                                               


 
  ***** POST1 NODAL DEGREE OF FREEDOM LISTING *****                            
 
  LOAD STEP=     1  SUBSTEP=     1                                             
   TIME=    1.0000      LOAD CASE=   0                                         
 
    NODE      VOLT  
    2068   1517.3    
    2069   1449.8    
    2070   1471.8    
    2071   1583.8    
    2072   1634.8    
    2073   1566.8    
    2074   1502.8    
    2075   1542.6    
    2076   1664.9    
    2077   1698.9    
    2078   1643.0    
    2079   1589.1    
    2080   1639.2    
    2081   1770.5    
    2082   1782.4    
    2083   1740.1    
    2084   1821.9    
    2085   1697.0    
    2086   1765.7    
    2087   1802.9    
    2088   14.613    
    2089   11.710    
    2090   14.771    
    2091   9.1821    
    2092   14.167    
    2093   32.600    
    2094   26.916    
    2095   34.467    
    2096   21.006    
    2097   30.765    
    2098   75.936    
    2099   63.214    
    2100   78.976    
    2101   46.712    
    2102   71.625    
    2103   179.57    
    2104   141.71    
    2105   180.92    
    2106   110.59    

 *** ANSYS - ENGINEERING ANALYSIS SYSTEM  RELEASE Release 16.1     16.1     ***
 ANSYS Academic Teaching Advanced                  
 00203145  VERSION=LINUX x64     16:01:42  JUN 12, 2018 CP=     42.311

                                                                               


 
  ***** POST1 NODAL DEGREE OF FREEDOM LISTING *****                            
 
  LOAD STEP=     1  SUBSTEP=     1                                             
   TIME=    1.0000      LOAD CASE=   0                                         
 
    NODE      VOLT  
    2107   175.43    
    2108   422.50    
    2109   343.63    
    2110   404.89    
    2111   277.99    
    2112   426.16    
    2113   883.48    
    2114   751.96    
    2115   796.52    
    2116   689.85    
    2117   980.65    
    2118   60.515    
    2119   40.263    
    2120   54.487    
    2121   65.061    
    2122   80.870    
    2123   69.334    
    2124   48.505    
    2125   69.469    
    2126   88.710    
    2127   88.057    
    2128   75.795    
    2129   51.716    
    2130   72.916    
    2131   91.542    
    2132   98.754    
    2133   101.09    
    2134   67.483    
    2135   91.680    
    2136   111.61    
    2137   132.79    
    2138   174.95    
    2139   125.24    
    2140   148.32    
    2141   98.415    
    2142   166.26    
    2143   217.70    
    2144   208.07    
    2145   199.29    

 *** ANSYS - ENGINEERING ANALYSIS SYSTEM  RELEASE Release 16.1     16.1     ***
 ANSYS Academic Teaching Advanced                  
 00203145  VERSION=LINUX x64     16:01:42  JUN 12, 2018 CP=     42.311

                                                                               


 
  ***** POST1 NODAL DEGREE OF FREEDOM LISTING *****                            
 
  LOAD STEP=     1  SUBSTEP=     1                                             
   TIME=    1.0000      LOAD CASE=   0                                         
 
    NODE      VOLT  
    2146   193.74    
    2147   144.54    
    2148   244.83    
    2149   246.55    
    2150   207.06    
    2151   135.89    
    2152   198.38    
    2153   254.34    
    2154   276.86    
    2155   299.41    
    2156   208.58    
    2157   263.00    
    2158   317.53    
    2159   380.82    
    2160   1743.8    
    2161   1801.6    
    2162   1777.1    
    2163   1766.8    
    2164   1680.6    
    2165   1594.3    
    2166   1700.5    
    2167   1630.8    
    2168   1576.4    
    2169   1485.2    
    2170   1420.3    
    2171   1581.3    
    2172   1471.1    
    2173   1383.6    
    2174   1270.1    
    2175   1249.2    
    2176   1452.5    
    2177   1276.9    
    2178   1164.5    
    2179   1085.1    
    2180   1168.5    
    2181   1366.4    
    2182   1177.7    
    2183   1023.1    
    2184   1001.0    

 *** ANSYS - ENGINEERING ANALYSIS SYSTEM  RELEASE Release 16.1     16.1     ***
 ANSYS Academic Teaching Advanced                  
 00203145  VERSION=LINUX x64     16:01:42  JUN 12, 2018 CP=     42.311

                                                                               


 
  ***** POST1 NODAL DEGREE OF FREEDOM LISTING *****                            
 
  LOAD STEP=     1  SUBSTEP=     1                                             
   TIME=    1.0000      LOAD CASE=   0                                         
 
    NODE      VOLT  
    2185  0.63775E-01
    2186  0.89080E-01
    2187  0.74239E-01
    2188  0.51811E-01
    2189  0.44686E-01
    2190  0.28091    
    2191  0.22196    
    2192  0.22514    
    2193  0.20309    
    2194  0.33396    
    2195  0.51192    
    2196  0.40129    
    2197  0.45263    
    2198  0.46863    
    2199  0.60783    
[...]
   50059   412.43    
   50060   129.16    
   50061   132.13    
   50062   133.08    
   50063   149.89    
   50064   152.92    
   50065   154.72    
   50066   354.50    
   50067   344.58    
   50068   353.17    
   50069   378.07    
   50070   389.09    
   50071   392.59    
   50072   1449.8    
   50073   1465.7    
   50074   1460.1    
   50075   1235.2    
   50076   1227.5    

 *** ANSYS - ENGINEERING ANALYSIS SYSTEM  RELEASE Release 16.1     16.1     ***
 ANSYS Academic Teaching Advanced                  
 00203145  VERSION=LINUX x64     16:01:42  JUN 12, 2018 CP=     42.853

                                                                               


 
  ***** POST1 NODAL DEGREE OF FREEDOM LISTING *****                            
 
  LOAD STEP=     1  SUBSTEP=     1                                             
   TIME=    1.0000      LOAD CASE=   0                                         
 
    NODE      VOLT  
   50077   1210.6    
   50078   952.76    
   50079   939.54    
   50080   922.95    
   50081  0.83216    
   50082  0.83380    
   50083  0.85857    
   50084   3.7858    
   50085   3.7061    
   50086   3.8674    
   50087   7.8929    
   50088   7.7101    
   50089   8.1144    
   50090   18.193    
   50091   18.278    
   50092   19.165    
   50093   141.40    
   50094   140.70    
   50095   145.30    
   50096   217.67    
   50097   215.49    
   50098   223.35    
   50099   259.89    
   50100   248.08    
   50101   256.94    
   50102   121.89    
   50103   121.17    
   50104   129.23    
   50105  0.97620    
   50106   1.0092    
   50107   1.0096    
   50108   2.7540    
   50109   2.9066    
   50110   2.8421    
   50111   9.1743    
   50112   9.7594    
   50113   9.8158    
   50114   627.32    
   50115   617.23    

 *** ANSYS - ENGINEERING ANALYSIS SYSTEM  RELEASE Release 16.1     16.1     ***
 ANSYS Academic Teaching Advanced                  
 00203145  VERSION=LINUX x64     16:01:42  JUN 12, 2018 CP=     42.854

                                                                               


 
  ***** POST1 NODAL DEGREE OF FREEDOM LISTING *****                            
 
  LOAD STEP=     1  SUBSTEP=     1                                             
   TIME=    1.0000      LOAD CASE=   0                                         
 
    NODE      VOLT  
   50116   609.56    
   50117   782.57    
   50118   773.37    
   50119   765.68    
   50120   913.29    
   50121   906.23    
   50122   899.21    
   50123   1005.5    
   50124   1000.7    
   50125   993.19    
   50126   1070.3    
   50127   1066.8    
   50128   1058.8    
   50129   1121.4    
   50130   1118.5    
   50131   1110.6    
   50132   1155.8    
   50133   1154.8    
   50134   1146.6    
   50135   1154.8    
   50136   1155.6    
   50137   1145.1    
   50138   1152.6    
   50139   1152.1    
   50140   1141.0    
   50141   1168.8    
   50142   1167.8    
   50143   1156.9    
   50144   1211.5    
   50145   1205.5    
   50146   1194.6    
   50147   1379.5    
   50148   1366.3    
   50149   1365.4    
   50150   18.836    
   50151   20.036    
   50152   18.688    
   50153   47.048    
   50154   49.857    

 *** ANSYS - ENGINEERING ANALYSIS SYSTEM  RELEASE Release 16.1     16.1     ***
 ANSYS Academic Teaching Advanced                  
 00203145  VERSION=LINUX x64     16:01:42  JUN 12, 2018 CP=     42.854

                                                                               


 
  ***** POST1 NODAL DEGREE OF FREEDOM LISTING *****                            
 
  LOAD STEP=     1  SUBSTEP=     1                                             
   TIME=    1.0000      LOAD CASE=   0                                         
 
    NODE      VOLT  
   50155   46.731    
   50156   164.68    
   50157   163.00    
   50158   166.75    
   50159   191.80    
   50160   190.18    
   50161   194.60    
   50162   227.43    
   50163   222.14    
   50164   226.06    
   50165   299.96    
   50166   300.54    
   50167   308.20    
   50168   445.28    
   50169   442.42    
   50170   452.57    
   50171   741.84    
   50172   762.76    
   50173   737.44    
   50174   1.3949    
   50175   1.3461    
   50176   1.3709    
   50177   2.4234    
   50178   2.3429    
   50179   2.4194    
   50180   3.5523    
   50181   3.4210    
   50182   3.4367    
   50183   7.2435    
   50184   6.8710    
   50185   6.8717    
   50186   25.808    
   50187   24.399    
   50188   25.888    
   50189   167.29    
   50190   170.97    
   50191   171.58    
   50192   256.60    
   50193   264.63    

 *** ANSYS - ENGINEERING ANALYSIS SYSTEM  RELEASE Release 16.1     16.1     ***
 ANSYS Academic Teaching Advanced                  
 00203145  VERSION=LINUX x64     16:01:42  JUN 12, 2018 CP=     42.854

                                                                               


 
  ***** POST1 NODAL DEGREE OF FREEDOM LISTING *****                            
 
  LOAD STEP=     1  SUBSTEP=     1                                             
   TIME=    1.0000      LOAD CASE=   0                                         
 
    NODE      VOLT  
   50194   263.74    
   50195   389.55    
   50196   391.44    
   50197   406.97    
   50198   4.0467    
   50199   4.2072    
   50200   4.2608    
   50201   640.77    
   50202   623.85    
   50203   633.67    
   50204   794.70    
   50205   780.36    
   50206   789.48    
   50207   912.19    
   50208   900.22    
   50209   906.22    
   50210   991.44    
   50211   980.65    
   50212   984.75    
   50213   1049.0    
   50214   1038.5    
   50215   1041.8    
   50216   1098.7    
   50217   1089.3    
   50218   1092.1    
   50219   1113.6    
   50220   1105.5    
   50221   1104.8    
   50222   1097.8    
   50223   1087.3    
   50224   1086.6    
   50225   1102.2    
   50226   1090.0    
   50227   1091.4    
   50228   1112.3    
   50229   1098.3    
   50230   1099.3    
   50231   1219.0    
   50232   1200.2    

 *** ANSYS - ENGINEERING ANALYSIS SYSTEM  RELEASE Release 16.1     16.1     ***
 ANSYS Academic Teaching Advanced                  
 00203145  VERSION=LINUX x64     16:01:42  JUN 12, 2018 CP=     42.854

                                                                               


 
  ***** POST1 NODAL DEGREE OF FREEDOM LISTING *****                            
 
  LOAD STEP=     1  SUBSTEP=     1                                             
   TIME=    1.0000      LOAD CASE=   0                                         
 
    NODE      VOLT  
   50233   1214.6    
   50234   159.83    
   50235   158.27    
   50236   162.12    
   50237   162.27    
   50238   163.71    
   50239   165.86    
   50240   194.06    
   50241   196.40    
   50242   198.46    
   50243   275.62    
   50244   272.75    
   50245   278.93    
   50246   347.92    
   50247   341.74    
   50248   348.64    
   50249   473.60    
   50250   464.78    
   50251   471.27    
   50252   526.90    
   50253   521.32    
   50254   505.06    
   50255   214.14    
   50256   215.72    
   50257   220.06    
   50258   350.49    
   50259   354.09    
   50260   363.03    
   50261   444.71    
   50262   461.16    
   50263   455.92    
   50264   713.73    
   50265   705.04    
   50266   703.93    
   50267   827.71    
   50268   821.63    
   50269   817.85    
   50270   906.80    
   50271   903.04    

 *** ANSYS - ENGINEERING ANALYSIS SYSTEM  RELEASE Release 16.1     16.1     ***
 ANSYS Academic Teaching Advanced                  
 00203145  VERSION=LINUX x64     16:01:42  JUN 12, 2018 CP=     42.855

                                                                               


 
  ***** POST1 NODAL DEGREE OF FREEDOM LISTING *****                            
 
  LOAD STEP=     1  SUBSTEP=     1                                             
   TIME=    1.0000      LOAD CASE=   0                                         
 
    NODE      VOLT  
   50272   898.03    
   50273   959.64    
   50274   956.37    
   50275   950.30    
   50276   1020.0    
   50277   1015.6    
   50278   1010.8    
   50279   979.09    
   50280   981.69    
   50281   969.81    
   50282   974.12    
   50283   971.23    
   50284   960.08    
   50285   956.44    
   50286   965.38    
   50287   946.68    
   50288   187.05    
   50289   188.85    
   50290   190.68    
   50291   191.26    
   50292   189.05    
   50293   192.65    
   50294   232.12    
   50295   229.36    
   50296   234.07    
   50297   278.98    
   50298   273.03    
   50299   275.78    
   50300   326.64    
   50301   329.57    
   50302   333.61    
   50303   415.36    
   50304   414.12    
   50305   421.50    
   50306   548.97    
   50307   546.54    
   50308   555.07    
   50309   615.43    
   50310   609.04    

 *** ANSYS - ENGINEERING ANALYSIS SYSTEM  RELEASE Release 16.1     16.1     ***
 ANSYS Academic Teaching Advanced                  
 00203145  VERSION=LINUX x64     16:01:42  JUN 12, 2018 CP=     42.855

                                                                               


 
  ***** POST1 NODAL DEGREE OF FREEDOM LISTING *****                            
 
  LOAD STEP=     1  SUBSTEP=     1                                             
   TIME=    1.0000      LOAD CASE=   0                                         
 
    NODE      VOLT  
   50311   619.02    
   50312   790.19    
   50313   813.26    
   50314   797.98    
   50315   219.20    
   50316   223.78    
   50317   221.18    
   50318   606.41    
   50319   615.54    
   50320   627.07    
   50321   741.74    
   50322   732.76    
   50323   739.38    
   50324   837.67    
   50325   829.11    
   50326   834.43    
   50327   896.34    
   50328   887.86    
   50329   890.64    
   50330   947.86    
   50331   938.16    
   50332   942.10    
   50333   904.57    
   50334   892.60    
   50335   890.72    
   50336   223.13    
   50337   224.37    
   50338   227.31    
   50339   326.03    
   50340   321.82    
   50341   328.97    
   50342   384.67    
   50343   381.59    
   50344   388.76    
   50345   442.62    
   50346   434.69    
   50347   440.37    
   50348   577.35    
   50349   568.66    

 *** ANSYS - ENGINEERING ANALYSIS SYSTEM  RELEASE Release 16.1     16.1     ***
 ANSYS Academic Teaching Advanced                  
 00203145  VERSION=LINUX x64     16:01:42  JUN 12, 2018 CP=     42.856

                                                                               


 
  ***** POST1 NODAL DEGREE OF FREEDOM LISTING *****                            
 
  LOAD STEP=     1  SUBSTEP=     1                                             
   TIME=    1.0000      LOAD CASE=   0                                         
 
    NODE      VOLT  
   50350   575.54    
   50351   606.80    
   50352   611.66    
   50353   615.16    
   50354   686.46    
   50355   680.52    
   50356   678.51    
   50357   786.33    
   50358   779.92    
   50359   778.96    
   50360   864.02    
   50361   860.14    
   50362   854.11    
   50363   610.57    
   50364   628.96    
   50365   619.27    
   50366   746.26    
   50367   756.07    
   50368   762.39    
   50369   386.17    
   50370   391.08    
   50371   395.09    
   50372   516.45    
   50373   514.83    
   50374   523.61    
   50375   655.31    
   50376   654.74    
   50377   662.92    
   50378   709.01    
   50379   700.95    
   50380   707.52    
   50381   487.23    
   50382   494.44    
   50383   479.83    
   50384   476.16    
   50385   471.99    
   50386   483.56    
   50387   557.40    
   50388   546.46    

 *** ANSYS - ENGINEERING ANALYSIS SYSTEM  RELEASE Release 16.1     16.1     ***
 ANSYS Academic Teaching Advanced                  
 00203145  VERSION=LINUX x64     16:01:42  JUN 12, 2018 CP=     42.856

                                                                               


 
  ***** POST1 NODAL DEGREE OF FREEDOM LISTING *****                            
 
  LOAD STEP=     1  SUBSTEP=     1                                             
   TIME=    1.0000      LOAD CASE=   0                                         
 
    NODE      VOLT  
   50389   555.72    
   50390   1533.6    
   50391   1563.5    
   50392   1550.6    
   50393   1713.1    
   50394   1743.8    
   50395   1740.4    
   50396   1487.4    
   50397   1501.1    
   50398   1523.2    
   50399   1318.1    
   50400   1345.7    
   50401   1312.0    
   50402   1166.0    
   50403   1150.8    
   50404   1116.7    
   50405   801.93    
   50406   822.36    
   50407   781.77    
   50408   540.87    
   50409   567.64    
   50410   549.30    
   50411   12.210    
   50412   11.834    
   50413   14.329    
   50414   22.412    
   50415   20.370    
   50416   22.169    
   50417   43.941    
   50418   42.018    
   50419   41.719    
   50420  0.84898    
   50421  0.86276    
   50422   1.0321    
   50423   2.4413    
   50424   2.2488    
   50425   2.5430    
   50426   1.6461    
   50427   1.8186    

 *** ANSYS - ENGINEERING ANALYSIS SYSTEM  RELEASE Release 16.1     16.1     ***
 ANSYS Academic Teaching Advanced                  
 00203145  VERSION=LINUX x64     16:01:42  JUN 12, 2018 CP=     42.856

                                                                               


 
  ***** POST1 NODAL DEGREE OF FREEDOM LISTING *****                            
 
  LOAD STEP=     1  SUBSTEP=     1                                             
   TIME=    1.0000      LOAD CASE=   0                                         
 
    NODE      VOLT  
   50428   1.8150    
   50429  0.11672E-01
   50430  0.94662E-02
   50431  0.11519E-01
   50432  0.25888E-02
   50433  0.19957E-02
   50434  0.18066E-02
   50435  0.31354E-02
   50436  0.34235E-02
   50437  0.28130E-02
   50438  0.12493    
   50439  0.12808    
   50440  0.15259    
   50441  0.20416    
   50442  0.23011    
   50443  0.22259    
   50444  0.78444E-02
   50445  0.71205E-02
   50446  0.77483E-02
   50447   1038.3    
   50448   1049.1    
   50449   1074.7    
   50450   4.9122    
   50451   5.1865    
   50452   5.2952    
   50453   3.8758    
   50454   4.1271    
   50455   3.8723    
   50456   51.546    
   50457   54.207    
   50458   53.608    
   50459   31.485    
   50460   32.602    
   50461   29.553    
   50462  0.17629E-01
   50463  0.16711E-01
   50464  0.18388E-01
   50465  0.32168E-01
   50466  0.35208E-01

 *** ANSYS - ENGINEERING ANALYSIS SYSTEM  RELEASE Release 16.1     16.1     ***
 ANSYS Academic Teaching Advanced                  
 00203145  VERSION=LINUX x64     16:01:42  JUN 12, 2018 CP=     42.857

                                                                               


 
  ***** POST1 NODAL DEGREE OF FREEDOM LISTING *****                            
 
  LOAD STEP=     1  SUBSTEP=     1                                             
   TIME=    1.0000      LOAD CASE=   0                                         
 
    NODE      VOLT  
   50467  0.35328E-01
   50468   849.00    
   50469   886.21    
   50470   874.04    
   50471   651.61    
   50472   679.61    
   50473   650.78    
   50474   31.792    
   50475   30.236    
   50476   31.365    
   50477   72.713    
   50478   76.098    
   50479   77.160    
   50480   1080.1    
   50481   1101.2    
   50482   1080.8    
   50483   866.79    
   50484   870.05    
   50485   847.15    
   50486   490.82    
   50487   500.43    
   50488   477.05    
   50489   853.05    
   50490   859.04    
   50491   847.25    
   50492   756.19    
   50493   750.34    
   50494   742.74    
   50495   742.33    
   50496   719.59    
   50497   711.44    
   50498   835.52    
   50499   804.35    
   50500   831.53    
   50501   168.43    
   50502   177.90    
   50503   173.12    
   50504   124.89    
   50505   128.62    

 *** ANSYS - ENGINEERING ANALYSIS SYSTEM  RELEASE Release 16.1     16.1     ***
 ANSYS Academic Teaching Advanced                  
 00203145  VERSION=LINUX x64     16:01:42  JUN 12, 2018 CP=     42.857

                                                                               


 
  ***** POST1 NODAL DEGREE OF FREEDOM LISTING *****                            
 
  LOAD STEP=     1  SUBSTEP=     1                                             
   TIME=    1.0000      LOAD CASE=   0                                         
 
    NODE      VOLT  
   50506   124.30    
   50507   1873.4    
   50508   1878.7    
   50509   1877.6    
   50510   1842.2    
   50511   1849.3    
   50512   1843.7    
   50513  0.28509    
   50514  0.26679    
   50515  0.27647    
   50516  0.44725    
   50517  0.43839    
   50518  0.46176    
   50519   2.3214    
   50520   2.4599    
   50521   2.3235    
   50522   1.3093    
   50523   1.3290    
   50524   1.2425    
   50525   197.74    
   50526   198.99    
   50527   203.73    
   50528   215.93    
   50529   224.31    
   50530   222.33    
   50531   339.20    
   50532   335.75    
   50533   351.73    
   50534   450.43    
   50535   462.08    
   50536   468.29    
   50537   1.9275    
   50538   1.9429    
   50539   1.9992    
   50540   1.9895    
   50541   2.0735    
   50542   2.0242    
   50543   323.01    
   50544   342.65    

 *** ANSYS - ENGINEERING ANALYSIS SYSTEM  RELEASE Release 16.1     16.1     ***
 ANSYS Academic Teaching Advanced                  
 00203145  VERSION=LINUX x64     16:01:42  JUN 12, 2018 CP=     42.857

                                                                               


 
  ***** POST1 NODAL DEGREE OF FREEDOM LISTING *****                            
 
  LOAD STEP=     1  SUBSTEP=     1                                             
   TIME=    1.0000      LOAD CASE=   0                                         
 
    NODE      VOLT  
   50545   327.63    
   50546   188.00    
   50547   191.40    
   50548   179.32    
   50549   521.83    
   50550   528.19    
   50551   534.11    
   50552   510.88    
   50553   525.30    
   50554   516.22    
   50555   1023.7    
   50556   1026.8    
   50557   1017.5    
   50558   955.80    
   50559   948.37    
   50560   944.82    
   50561   253.89    
   50562   253.88    
   50563   249.09    
   50564   373.94    
   50565   385.00    
   50566   381.37    
   50567   312.72    
   50568   318.25    
   50569   310.54    
   50570   658.92    
   50571   660.88    
   50572   670.26    
   50573   696.62    
   50574   705.55    
   50575   704.76    
   50576   600.88    
   50577   577.61    
   50578   591.45    
   50579   790.69    
   50580   776.27    
   50581   802.27    
   50582   1.2695    
   50583   1.2688    

 *** ANSYS - ENGINEERING ANALYSIS SYSTEM  RELEASE Release 16.1     16.1     ***
 ANSYS Academic Teaching Advanced                  
 00203145  VERSION=LINUX x64     16:01:42  JUN 12, 2018 CP=     42.858

                                                                               


 
  ***** POST1 NODAL DEGREE OF FREEDOM LISTING *****                            
 
  LOAD STEP=     1  SUBSTEP=     1                                             
   TIME=    1.0000      LOAD CASE=   0                                         
 
    NODE      VOLT  
   50584   1.3032    
   50585   1.3993    
   50586   1.4456    
   50587   1.4293    
   50588   1.8495    
   50589   1.8941    
   50590   1.9477    
   50591   1.8401    
   50592   1.9158    
   50593   1.8698    
   50594   821.20    
   50595   820.03    
   50596   813.78    
   50597   797.09    
   50598   787.78    
   50599   790.04    
   50600   62.966    
   50601   66.483    
   50602   66.977    
   50603   50.924    
   50604   54.016    
   50605   51.601    
   50606   125.42    
   50607   127.31    
   50608   129.58    
   50609   130.58    
   50610   134.24    
   50611   133.10    

 MAXIMUM ABSOLUTE VALUES
 NODE        163
 VALUE    1900.0    
